/*---------------------------------------------------------------------------*\
  =========                 |
  \\      /  F ield         | OpenFOAM: The Open Source CFD Toolbox
   \\    /   O peration     | Website:  https://openfoam.org
    \\  /    A nd           | Version:  8
     \\/     M anipulation  |
\*---------------------------------------------------------------------------*/
Build  : 8-9b73cf21a682
Exec   : simpleFoam
Date   : Oct 04 2020
Time   : 01:05:01
Host   : "bnes"
PID    : 11654
I/O    : uncollated
Case   : /media/sbkim/2266B8F966B8CEB3/git/openfoam_seo/of/org/yjn2_deck
nProcs : 1
sigFpe : Enabling floating point exception trapping (FOAM_SIGFPE).
fileModificationChecking : Monitoring run-time modified files using timeStampMaster (fileModificationSkew 10)
allowSystemOperations : Allowing user-supplied system call operations

// * * * * * * * * * * * * * * * * * * * * * * * * * * * * * * * * * * * * * //
Create time

Create mesh for time = 0


SIMPLE: Convergence criteria found
        p: tolerance 0.01
        U: tolerance 0.001
        "(k|epsilon|omega|f|v2)": tolerance 0.001

Reading field p

