/*---------------------------------------------------------------------------*\
| =========                 |                                                 |
| \\      /  F ield         | OpenFOAM: The Open Source CFD Toolbox           |
|  \\    /   O peration     | Version:  5.0                                   |
|   \\  /    A nd           | Web:      www.OpenFOAM.org                      |
|    \\/     M anipulation  |                                                 |
\*---------------------------------------------------------------------------*/
Build  : 5.0-dbb428a3a855
Exec   : icoFoam
Date   : Aug 24 2017
Time   : 12:33:25
Host   : "neowind"
PID    : 9883
I/O    : uncollated
Case   : /media/sbkim/011015fa-005e-40ac-b96a-ffbde3bf46c6/Krieg/Work/OpenFOAM/sbkim-5.0/run/bridgeDeck/cavity
nProcs : 1
sigFpe : Enabling floating point exception trapping (FOAM_SIGFPE).
fileModificationChecking : Monitoring run-time modified files using timeStampMaster (fileModificationSkew 10)
allowSystemOperations : Allowing user-supplied system call operations

// * * * * * * * * * * * * * * * * * * * * * * * * * * * * * * * * * * * * * //
Create time

Create mesh for time = 0


PISO: Operating solver in PISO mode

Reading transportProperties

Reading field p

Reading field U

Reading/calculating face flux field phi


Starting time loop

Time = 0.0025

Courant Number mean: 0.980157 max: 1.17293
smoothSolver:  Solving for Ux, Initial residual = 1, Final residual = 9.43724e-06, No Iterations 36
smoothSolver:  Solving for Uy, Initial residual = 0, Final residual = 0, No Iterations 0
DICPCG:  Solving for p, Initial residual = 1, Final residual = 0.0494498, No Iterations 417
time step continuity errors : sum local = 0.000260517, global = 1.6293e-21, cumulative = 1.6293e-21
DICPCG:  Solving for p, Initial residual = 0.547274, Final residual = 9.42802e-07, No Iterations 679
time step continuity errors : sum local = 9.25871e-09, global = -7.00299e-21, cumulative = -5.37369e-21
ExecutionTime = 3.88 s  ClockTime = 4 s

Time = 0.005

Courant Number mean: 0.0230864 max: 0.579141
smoothSolver:  Solving for Ux, Initial residual = 0.938626, Final residual = 8.10611e-06, No Iterations 48
smoothSolver:  Solving for Uy, Initial residual = 0.713107, Final residual = 8.30046e-06, No Iterations 46
DICPCG:  Solving for p, Initial residual = 0.928653, Final residual = 0.0450669, No Iterations 443
time step continuity errors : sum local = 0.000360413, global = -1.58857e-20, cumulative = -2.12594e-20
DICPCG:  Solving for p, Initial residual = 0.61362, Final residual = 9.91757e-07, No Iterations 679
time step continuity errors : sum local = 1.10258e-08, global = -9.74292e-22, cumulative = -2.22337e-20
ExecutionTime = 7.39 s  ClockTime = 7 s

Time = 0.0075

Courant Number mean: 0.0272243 max: 1.10403
smoothSolver:  Solving for Ux, Initial residual = 0.477856, Final residual = 8.7168e-06, No Iterations 42
smoothSolver:  Solving for Uy, Initial residual = 0.761207, Final residual = 8.33528e-06, No Iterations 46
DICPCG:  Solving for p, Initial residual = 0.960067, Final residual = 0.0468119, No Iterations 161
time step continuity errors : sum local = 0.000233071, global = 3.77964e-20, cumulative = 1.55627e-20
DICPCG:  Solving for p, Initial residual = 0.895675, Final residual = 9.6867e-07, No Iterations 688
time step continuity errors : sum local = 4.25762e-09, global = 6.29288e-21, cumulative = 2.18556e-20
ExecutionTime = 10.1 s  ClockTime = 10 s

Time = 0.01

Courant Number mean: 0.0251772 max: 0.944263
smoothSolver:  Solving for Ux, Initial residual = 0.38448, Final residual = 9.28574e-06, No Iterations 43
smoothSolver:  Solving for Uy, Initial residual = 0.823218, Final residual = 8.48165e-06, No Iterations 47
DICPCG:  Solving for p, Initial residual = 0.937799, Final residual = 0.0467041, No Iterations 465
time step continuity errors : sum local = 0.000116373, global = -1.13202e-20, cumulative = 1.05353e-20
DICPCG:  Solving for p, Initial residual = 0.599566, Final residual = 9.76198e-07, No Iterations 702
time step continuity errors : sum local = 3.25982e-09, global = -8.09637e-21, cumulative = 2.43896e-21
ExecutionTime = 13.75 s  ClockTime = 14 s

Time = 0.0125

Courant Number mean: 0.0287753 max: 0.9386
smoothSolver:  Solving for Ux, Initial residual = 0.141546, Final residual = 8.68977e-06, No Iterations 38
smoothSolver:  Solving for Uy, Initial residual = 0.447832, Final residual = 9.79047e-06, No Iterations 43
DICPCG:  Solving for p, Initial residual = 0.951918, Final residual = 0.0453019, No Iterations 381
time step continuity errors : sum local = 4.97187e-05, global = 1.49766e-20, cumulative = 1.74156e-20
DICPCG:  Solving for p, Initial residual = 0.779448, Final residual = 9.67639e-07, No Iterations 685
time step continuity errors : sum local = 1.09905e-09, global = -2.01687e-21, cumulative = 1.53987e-20
ExecutionTime = 16.92 s  ClockTime = 17 s

Time = 0.015

Courant Number mean: 0.0300066 max: 0.930092
smoothSolver:  Solving for Ux, Initial residual = 0.0715752, Final residual = 8.63441e-06, No Iterations 36
smoothSolver:  Solving for Uy, Initial residual = 0.183306, Final residual = 8.68387e-06, No Iterations 40
DICPCG:  Solving for p, Initial residual = 0.939919, Final residual = 0.0464501, No Iterations 149
time step continuity errors : sum local = 2.30044e-05, global = 4.84228e-21, cumulative = 2.0241e-20
DICPCG:  Solving for p, Initial residual = 0.848872, Final residual = 9.31252e-07, No Iterations 686
time step continuity errors : sum local = 4.14749e-10, global = 1.38753e-20, cumulative = 3.41163e-20
ExecutionTime = 19.49 s  ClockTime = 19 s

Time = 0.0175

Courant Number mean: 0.0321046 max: 0.937021
smoothSolver:  Solving for Ux, Initial residual = 0.0695219, Final residual = 9.45261e-06, No Iterations 36
smoothSolver:  Solving for Uy, Initial residual = 0.161704, Final residual = 9.12331e-06, No Iterations 40
DICPCG:  Solving for p, Initial residual = 0.871612, Final residual = 0.0432514, No Iterations 449
time step continuity errors : sum local = 1.07639e-05, global = 1.7122e-20, cumulative = 5.12382e-20
DICPCG:  Solving for p, Initial residual = 0.579927, Final residual = 9.57045e-07, No Iterations 696
time step continuity errors : sum local = 3.03492e-10, global = -4.56379e-21, cumulative = 4.66744e-20
ExecutionTime = 22.89 s  ClockTime = 23 s

Time = 0.02

Courant Number mean: 0.0340438 max: 0.940791
smoothSolver:  Solving for Ux, Initial residual = 0.025514, Final residual = 9.66272e-06, No Iterations 31
smoothSolver:  Solving for Uy, Initial residual = 0.0636974, Final residual = 8.51898e-06, No Iterations 36
DICPCG:  Solving for p, Initial residual = 0.805218, Final residual = 0.0387156, No Iterations 391
time step continuity errors : sum local = 4.85241e-06, global = 1.53463e-21, cumulative = 4.82091e-20
DICPCG:  Solving for p, Initial residual = 0.670833, Final residual = 9.79943e-07, No Iterations 686
time step continuity errors : sum local = 1.24131e-10, global = -6.95452e-21, cumulative = 4.12546e-20
ExecutionTime = 26.08 s  ClockTime = 26 s

Time = 0.0225

Courant Number mean: 0.0360273 max: 0.944997
smoothSolver:  Solving for Ux, Initial residual = 0.0169449, Final residual = 8.66296e-06, No Iterations 30
smoothSolver:  Solving for Uy, Initial residual = 0.0372435, Final residual = 9.03931e-06, No Iterations 34
DICPCG:  Solving for p, Initial residual = 0.667005, Final residual = 0.0332839, No Iterations 169
time step continuity errors : sum local = 2.48957e-06, global = 5.0069e-21, cumulative = 4.62615e-20
DICPCG:  Solving for p, Initial residual = 0.587785, Final residual = 9.96294e-07, No Iterations 683
time step continuity errors : sum local = 6.44733e-11, global = 9.69023e-21, cumulative = 5.59517e-20
ExecutionTime = 28.66 s  ClockTime = 28 s

Time = 0.025

Courant Number mean: 0.0379045 max: 0.947788
smoothSolver:  Solving for Ux, Initial residual = 0.0223823, Final residual = 8.12062e-06, No Iterations 32
smoothSolver:  Solving for Uy, Initial residual = 0.0380766, Final residual = 9.35885e-06, No Iterations 34
DICPCG:  Solving for p, Initial residual = 0.5105, Final residual = 0.0249125, No Iterations 477
time step continuity errors : sum local = 1.23405e-06, global = -1.97232e-22, cumulative = 5.57545e-20
DICPCG:  Solving for p, Initial residual = 0.32333, Final residual = 9.54929e-07, No Iterations 699
time step continuity errors : sum local = 6.41857e-11, global = 1.18283e-20, cumulative = 6.75828e-20
ExecutionTime = 32.09 s  ClockTime = 32 s

Time = 0.0275

Courant Number mean: 0.0397156 max: 0.950708
smoothSolver:  Solving for Ux, Initial residual = 0.0150921, Final residual = 8.71782e-06, No Iterations 30
smoothSolver:  Solving for Uy, Initial residual = 0.0271827, Final residual = 8.77659e-06, No Iterations 33
DICPCG:  Solving for p, Initial residual = 0.351163, Final residual = 0.0172108, No Iterations 338
time step continuity errors : sum local = 6.03747e-07, global = 1.07298e-20, cumulative = 7.83126e-20
DICPCG:  Solving for p, Initial residual = 0.283964, Final residual = 9.37737e-07, No Iterations 682
time step continuity errors : sum local = 3.44909e-11, global = 1.78589e-20, cumulative = 9.61715e-20
ExecutionTime = 35.11 s  ClockTime = 35 s

Time = 0.03

Courant Number mean: 0.0413988 max: 0.952888
smoothSolver:  Solving for Ux, Initial residual = 0.0137097, Final residual = 8.20825e-06, No Iterations 30
smoothSolver:  Solving for Uy, Initial residual = 0.0240235, Final residual = 8.07868e-06, No Iterations 33
DICPCG:  Solving for p, Initial residual = 0.204068, Final residual = 0.0101697, No Iterations 218
time step continuity errors : sum local = 2.9962e-07, global = 1.63613e-20, cumulative = 1.12533e-19
DICPCG:  Solving for p, Initial residual = 0.174891, Final residual = 9.79594e-07, No Iterations 672
time step continuity errors : sum local = 2.73942e-11, global = -9.23085e-21, cumulative = 1.03302e-19
ExecutionTime = 37.78 s  ClockTime = 38 s

Time = 0.0325

Courant Number mean: 0.0430142 max: 0.954872
smoothSolver:  Solving for Ux, Initial residual = 0.0123896, Final residual = 9.63125e-06, No Iterations 29
smoothSolver:  Solving for Uy, Initial residual = 0.0215807, Final residual = 9.38038e-06, No Iterations 32
DICPCG:  Solving for p, Initial residual = 0.115986, Final residual = 0.00545005, No Iterations 464
time step continuity errors : sum local = 1.39259e-07, global = 1.88036e-21, cumulative = 1.05182e-19
DICPCG:  Solving for p, Initial residual = 0.0956898, Final residual = 9.59895e-07, No Iterations 676
time step continuity errors : sum local = 2.55029e-11, global = 7.90579e-22, cumulative = 1.05973e-19
ExecutionTime = 41.24 s  ClockTime = 41 s

Time = 0.035

Courant Number mean: 0.0445551 max: 0.956582
smoothSolver:  Solving for Ux, Initial residual = 0.011606, Final residual = 9.14251e-06, No Iterations 29
smoothSolver:  Solving for Uy, Initial residual = 0.0190403, Final residual = 8.28225e-06, No Iterations 32
DICPCG:  Solving for p, Initial residual = 0.0629775, Final residual = 0.00299287, No Iterations 470
time step continuity errors : sum local = 7.2374e-08, global = 5.94009e-21, cumulative = 1.11913e-19
DICPCG:  Solving for p, Initial residual = 0.0540397, Final residual = 9.83287e-07, No Iterations 636
time step continuity errors : sum local = 2.38449e-11, global = 4.74465e-21, cumulative = 1.16658e-19
ExecutionTime = 44.47 s  ClockTime = 44 s

Time = 0.0375

Courant Number mean: 0.0460315 max: 0.958108
smoothSolver:  Solving for Ux, Initial residual = 0.0108335, Final residual = 8.63045e-06, No Iterations 29
smoothSolver:  Solving for Uy, Initial residual = 0.0175572, Final residual = 9.79045e-06, No Iterations 31
DICPCG:  Solving for p, Initial residual = 0.0375374, Final residual = 0.00177454, No Iterations 234
time step continuity errors : sum local = 4.63014e-08, global = -3.41093e-20, cumulative = 8.25484e-20
DICPCG:  Solving for p, Initial residual = 0.0328638, Final residual = 9.41272e-07, No Iterations 639
time step continuity errors : sum local = 2.21776e-11, global = -1.41742e-20, cumulative = 6.83742e-20
ExecutionTime = 47.1 s  ClockTime = 47 s

Time = 0.04

Courant Number mean: 0.0474471 max: 0.959479
smoothSolver:  Solving for Ux, Initial residual = 0.0102793, Final residual = 8.26941e-06, No Iterations 29
smoothSolver:  Solving for Uy, Initial residual = 0.0161292, Final residual = 8.99388e-06, No Iterations 31
DICPCG:  Solving for p, Initial residual = 0.0286833, Final residual = 0.00140327, No Iterations 469
time step continuity errors : sum local = 3.2981e-08, global = 5.90939e-21, cumulative = 7.42836e-20
DICPCG:  Solving for p, Initial residual = 0.0250716, Final residual = 9.97807e-07, No Iterations 635
time step continuity errors : sum local = 2.38508e-11, global = 9.08062e-22, cumulative = 7.51917e-20
ExecutionTime = 50.31 s  ClockTime = 50 s

Time = 0.0425

Courant Number mean: 0.048806 max: 0.960723
smoothSolver:  Solving for Ux, Initial residual = 0.00958286, Final residual = 9.91868e-06, No Iterations 28
smoothSolver:  Solving for Uy, Initial residual = 0.0152381, Final residual = 8.54084e-06, No Iterations 31
DICPCG:  Solving for p, Initial residual = 0.0229443, Final residual = 0.00114619, No Iterations 463
time step continuity errors : sum local = 2.67695e-08, global = 1.20089e-20, cumulative = 8.72006e-20
DICPCG:  Solving for p, Initial residual = 0.020486, Final residual = 9.5466e-07, No Iterations 623
time step continuity errors : sum local = 2.23565e-11, global = 4.88253e-21, cumulative = 9.20831e-20
ExecutionTime = 53.49 s  ClockTime = 53 s

Time = 0.045

Courant Number mean: 0.0501146 max: 0.961848
smoothSolver:  Solving for Ux, Initial residual = 0.00906236, Final residual = 9.45178e-06, No Iterations 28
smoothSolver:  Solving for Uy, Initial residual = 0.0142645, Final residual = 8.01734e-06, No Iterations 31
DICPCG:  Solving for p, Initial residual = 0.0187446, Final residual = 0.000927642, No Iterations 233
time step continuity errors : sum local = 2.19481e-08, global = -3.61516e-20, cumulative = 5.59315e-20
DICPCG:  Solving for p, Initial residual = 0.0170109, Final residual = 9.27731e-07, No Iterations 636
time step continuity errors : sum local = 2.16427e-11, global = 7.34928e-21, cumulative = 6.32808e-20
ExecutionTime = 56.08 s  ClockTime = 56 s

Time = 0.0475

Courant Number mean: 0.051375 max: 0.962876
smoothSolver:  Solving for Ux, Initial residual = 0.0085873, Final residual = 9.01514e-06, No Iterations 28
smoothSolver:  Solving for Uy, Initial residual = 0.0134472, Final residual = 9.63589e-06, No Iterations 30
DICPCG:  Solving for p, Initial residual = 0.0163511, Final residual = 0.000796654, No Iterations 234
time step continuity errors : sum local = 2.00532e-08, global = -9.59236e-21, cumulative = 5.36884e-20
DICPCG:  Solving for p, Initial residual = 0.0152305, Final residual = 9.99525e-07, No Iterations 641
time step continuity errors : sum local = 2.32989e-11, global = 2.3514e-20, cumulative = 7.72025e-20
ExecutionTime = 58.71 s  ClockTime = 59 s

Time = 0.05

Courant Number mean: 0.0525934 max: 0.963821
smoothSolver:  Solving for Ux, Initial residual = 0.00820793, Final residual = 8.6668e-06, No Iterations 28
smoothSolver:  Solving for Uy, Initial residual = 0.0126277, Final residual = 9.05158e-06, No Iterations 30
DICPCG:  Solving for p, Initial residual = 0.0153237, Final residual = 0.000765144, No Iterations 473
time step continuity errors : sum local = 1.78677e-08, global = 2.974e-20, cumulative = 1.06942e-19
DICPCG:  Solving for p, Initial residual = 0.0140096, Final residual = 9.79686e-07, No Iterations 651
time step continuity errors : sum local = 2.29757e-11, global = -4.48286e-21, cumulative = 1.0246e-19
ExecutionTime = 61.97 s  ClockTime = 62 s

Time = 0.0525

Courant Number mean: 0.0537704 max: 0.964691
smoothSolver:  Solving for Ux, Initial residual = 0.00779326, Final residual = 8.27219e-06, No Iterations 28
smoothSolver:  Solving for Uy, Initial residual = 0.0120201, Final residual = 8.63785e-06, No Iterations 30
DICPCG:  Solving for p, Initial residual = 0.0142346, Final residual = 0.000655154, No Iterations 237
time step continuity errors : sum local = 1.67571e-08, global = 5.88828e-21, cumulative = 1.08348e-19
DICPCG:  Solving for p, Initial residual = 0.0130467, Final residual = 9.69853e-07, No Iterations 624
time step continuity errors : sum local = 2.26168e-11, global = -4.49532e-21, cumulative = 1.03853e-19
ExecutionTime = 64.53 s  ClockTime = 64 s

Time = 0.055

Courant Number mean: 0.0549116 max: 0.965496
smoothSolver:  Solving for Ux, Initial residual = 0.00748011, Final residual = 7.97893e-06, No Iterations 28
smoothSolver:  Solving for Uy, Initial residual = 0.0113623, Final residual = 8.1648e-06, No Iterations 30
DICPCG:  Solving for p, Initial residual = 0.013826, Final residual = 0.000670779, No Iterations 472
time step continuity errors : sum local = 1.56699e-08, global = 3.33602e-21, cumulative = 1.07189e-19
DICPCG:  Solving for p, Initial residual = 0.0126488, Final residual = 9.73059e-07, No Iterations 643
time step continuity errors : sum local = 2.28503e-11, global = 1.62094e-20, cumulative = 1.23398e-19
ExecutionTime = 67.79 s  ClockTime = 68 s

Time = 0.0575

Courant Number mean: 0.0560174 max: 0.966245
smoothSolver:  Solving for Ux, Initial residual = 0.00712824, Final residual = 9.74415e-06, No Iterations 27
smoothSolver:  Solving for Uy, Initial residual = 0.0108731, Final residual = 9.96544e-06, No Iterations 29
DICPCG:  Solving for p, Initial residual = 0.0129015, Final residual = 0.000597675, No Iterations 236
time step continuity errors : sum local = 1.52651e-08, global = -1.60888e-20, cumulative = 1.07309e-19
DICPCG:  Solving for p, Initial residual = 0.0117331, Final residual = 9.86669e-07, No Iterations 625
time step continuity errors : sum local = 2.30283e-11, global = -1.36432e-20, cumulative = 9.3666e-20
ExecutionTime = 70.41 s  ClockTime = 70 s

Time = 0.06

Courant Number mean: 0.0570914 max: 0.966941
smoothSolver:  Solving for Ux, Initial residual = 0.00686718, Final residual = 9.4253e-06, No Iterations 27
smoothSolver:  Solving for Uy, Initial residual = 0.0103277, Final residual = 9.46451e-06, No Iterations 29
DICPCG:  Solving for p, Initial residual = 0.0125322, Final residual = 0.000620458, No Iterations 470
time step continuity errors : sum local = 1.45027e-08, global = -1.75022e-22, cumulative = 9.3491e-20
DICPCG:  Solving for p, Initial residual = 0.0115342, Final residual = 9.94901e-07, No Iterations 640
time step continuity errors : sum local = 2.33605e-11, global = -1.37678e-20, cumulative = 7.97232e-20
ExecutionTime = 73.62 s  ClockTime = 73 s

Time = 0.0625

Courant Number mean: 0.0581354 max: 0.967594
smoothSolver:  Solving for Ux, Initial residual = 0.0065683, Final residual = 9.04886e-06, No Iterations 27
smoothSolver:  Solving for Uy, Initial residual = 0.0099222, Final residual = 9.11041e-06, No Iterations 29
DICPCG:  Solving for p, Initial residual = 0.0116985, Final residual = 0.000546796, No Iterations 235
time step continuity errors : sum local = 1.38649e-08, global = -8.38868e-21, cumulative = 7.13345e-20
DICPCG:  Solving for p, Initial residual = 0.0106654, Final residual = 9.91653e-07, No Iterations 624
time step continuity errors : sum local = 2.31641e-11, global = 3.76479e-20, cumulative = 1.08982e-19
ExecutionTime = 76.24 s  ClockTime = 76 s

Time = 0.065

Courant Number mean: 0.0591507 max: 0.968205
smoothSolver:  Solving for Ux, Initial residual = 0.00634513, Final residual = 8.77161e-06, No Iterations 27
smoothSolver:  Solving for Uy, Initial residual = 0.00946593, Final residual = 8.69043e-06, No Iterations 29
DICPCG:  Solving for p, Initial residual = 0.0113519, Final residual = 0.000562094, No Iterations 412
time step continuity errors : sum local = 1.31724e-08, global = -3.09146e-20, cumulative = 7.80678e-20
DICPCG:  Solving for p, Initial residual = 0.0104514, Final residual = 9.79273e-07, No Iterations 639
time step continuity errors : sum local = 2.29856e-11, global = -5.52251e-21, cumulative = 7.25452e-20
ExecutionTime = 79.3 s  ClockTime = 79 s

Time = 0.0675

Courant Number mean: 0.0601407 max: 0.968781
smoothSolver:  Solving for Ux, Initial residual = 0.00608714, Final residual = 8.44237e-06, No Iterations 27
smoothSolver:  Solving for Uy, Initial residual = 0.00912425, Final residual = 8.39006e-06, No Iterations 29
DICPCG:  Solving for p, Initial residual = 0.0106761, Final residual = 0.000522132, No Iterations 233
time step continuity errors : sum local = 1.28167e-08, global = 6.94537e-21, cumulative = 7.94906e-20
DICPCG:  Solving for p, Initial residual = 0.0098036, Final residual = 9.9339e-07, No Iterations 626
time step continuity errors : sum local = 2.32173e-11, global = 1.41965e-20, cumulative = 9.36871e-20
ExecutionTime = 81.83 s  ClockTime = 82 s

Time = 0.07

Courant Number mean: 0.0611046 max: 0.969322
smoothSolver:  Solving for Ux, Initial residual = 0.00589108, Final residual = 8.19559e-06, No Iterations 27
smoothSolver:  Solving for Uy, Initial residual = 0.00874379, Final residual = 8.04189e-06, No Iterations 29
DICPCG:  Solving for p, Initial residual = 0.0101742, Final residual = 0.000507083, No Iterations 471
time step continuity errors : sum local = 1.18707e-08, global = -7.67208e-21, cumulative = 8.60151e-20
DICPCG:  Solving for p, Initial residual = 0.00936439, Final residual = 9.89426e-07, No Iterations 618
time step continuity errors : sum local = 2.31541e-11, global = 9.97119e-21, cumulative = 9.59862e-20
ExecutionTime = 84.96 s  ClockTime = 85 s

Time = 0.0725

Courant Number mean: 0.0620461 max: 0.969835
smoothSolver:  Solving for Ux, Initial residual = 0.00567698, Final residual = 7.92008e-06, No Iterations 27
smoothSolver:  Solving for Uy, Initial residual = 0.00843516, Final residual = 9.8836e-06, No Iterations 28
DICPCG:  Solving for p, Initial residual = 0.00958012, Final residual = 0.000462455, No Iterations 235
time step continuity errors : sum local = 1.12423e-08, global = 7.14975e-21, cumulative = 1.03136e-19
DICPCG:  Solving for p, Initial residual = 0.00880319, Final residual = 9.87376e-07, No Iterations 630
time step continuity errors : sum local = 2.30762e-11, global = 2.93991e-21, cumulative = 1.06076e-19
ExecutionTime = 87.53 s  ClockTime = 87 s

Time = 0.075

Courant Number mean: 0.0629653 max: 0.970319
smoothSolver:  Solving for Ux, Initial residual = 0.00549914, Final residual = 9.80827e-06, No Iterations 26
smoothSolver:  Solving for Uy, Initial residual = 0.0081167, Final residual = 9.51102e-06, No Iterations 28
DICPCG:  Solving for p, Initial residual = 0.00921515, Final residual = 0.000452924, No Iterations 409
time step continuity errors : sum local = 1.06039e-08, global = 5.9796e-21, cumulative = 1.12055e-19
DICPCG:  Solving for p, Initial residual = 0.00852626, Final residual = 9.89382e-07, No Iterations 630
time step continuity errors : sum local = 2.31866e-11, global = 1.09803e-20, cumulative = 1.23036e-19
ExecutionTime = 90.55 s  ClockTime = 90 s

Time = 0.0775

Courant Number mean: 0.0638625 max: 0.970779
smoothSolver:  Solving for Ux, Initial residual = 0.00531503, Final residual = 9.50279e-06, No Iterations 26
smoothSolver:  Solving for Uy, Initial residual = 0.0078474, Final residual = 9.20435e-06, No Iterations 28
DICPCG:  Solving for p, Initial residual = 0.00883869, Final residual = 0.000436984, No Iterations 234
time step continuity errors : sum local = 1.0275e-08, global = -1.49104e-20, cumulative = 1.08125e-19
DICPCG:  Solving for p, Initial residual = 0.00811606, Final residual = 9.48423e-07, No Iterations 618
time step continuity errors : sum local = 2.21885e-11, global = 4.95532e-21, cumulative = 1.13081e-19
ExecutionTime = 93.14 s  ClockTime = 93 s

Time = 0.08

Courant Number mean: 0.0647408 max: 0.971215
smoothSolver:  Solving for Ux, Initial residual = 0.00515185, Final residual = 9.23305e-06, No Iterations 26
smoothSolver:  Solving for Uy, Initial residual = 0.00757904, Final residual = 8.89287e-06, No Iterations 28
DICPCG:  Solving for p, Initial residual = 0.00847105, Final residual = 0.000419276, No Iterations 236
time step continuity errors : sum local = 1.09045e-08, global = 1.32218e-21, cumulative = 1.14403e-19
DICPCG:  Solving for p, Initial residual = 0.00788842, Final residual = 9.75591e-07, No Iterations 617
time step continuity errors : sum local = 2.28376e-11, global = -3.40261e-21, cumulative = 1.11e-19
ExecutionTime = 95.67 s  ClockTime = 95 s

Time = 0.0825

Courant Number mean: 0.0655997 max: 0.971631
smoothSolver:  Solving for Ux, Initial residual = 0.00497963, Final residual = 8.94296e-06, No Iterations 26
smoothSolver:  Solving for Uy, Initial residual = 0.00737305, Final residual = 8.65654e-06, No Iterations 28
DICPCG:  Solving for p, Initial residual = 0.00897173, Final residual = 0.000435827, No Iterations 482
time step continuity errors : sum local = 1.02171e-08, global = -8.96642e-21, cumulative = 1.02034e-19
DICPCG:  Solving for p, Initial residual = 0.00824175, Final residual = 9.56294e-07, No Iterations 631
time step continuity errors : sum local = 2.24976e-11, global = 5.65361e-21, cumulative = 1.07687e-19
ExecutionTime = 98.94 s  ClockTime = 99 s

Time = 0.085

Courant Number mean: 0.0664401 max: 0.972027
smoothSolver:  Solving for Ux, Initial residual = 0.00485197, Final residual = 8.7308e-06, No Iterations 26
smoothSolver:  Solving for Uy, Initial residual = 0.00710096, Final residual = 8.33655e-06, No Iterations 28
DICPCG:  Solving for p, Initial residual = 0.00821064, Final residual = 0.000409542, No Iterations 473
time step continuity errors : sum local = 9.59142e-09, global = 5.91778e-22, cumulative = 1.08279e-19
DICPCG:  Solving for p, Initial residual = 0.00754966, Final residual = 9.57509e-07, No Iterations 618
time step continuity errors : sum local = 2.24088e-11, global = 2.00958e-20, cumulative = 1.28375e-19
ExecutionTime = 102.14 s  ClockTime = 102 s

Time = 0.0875

Courant Number mean: 0.0672643 max: 0.972405
smoothSolver:  Solving for Ux, Initial residual = 0.0047133, Final residual = 8.49874e-06, No Iterations 26
smoothSolver:  Solving for Uy, Initial residual = 0.00688054, Final residual = 8.08447e-06, No Iterations 28
DICPCG:  Solving for p, Initial residual = 0.00764999, Final residual = 0.000378009, No Iterations 234
time step continuity errors : sum local = 8.92508e-09, global = 2.30363e-22, cumulative = 1.28605e-19
DICPCG:  Solving for p, Initial residual = 0.00705172, Final residual = 9.49583e-07, No Iterations 617
time step continuity errors : sum local = 2.22448e-11, global = -2.45977e-20, cumulative = 1.04008e-19
ExecutionTime = 104.68 s  ClockTime = 104 s

Time = 0.09

Courant Number mean: 0.0680715 max: 0.972766
smoothSolver:  Solving for Ux, Initial residual = 0.00458169, Final residual = 8.27687e-06, No Iterations 26
smoothSolver:  Solving for Uy, Initial residual = 0.00667613, Final residual = 9.98338e-06, No Iterations 27
DICPCG:  Solving for p, Initial residual = 0.00744341, Final residual = 0.000367872, No Iterations 233
time step continuity errors : sum local = 8.73071e-09, global = -2.05312e-21, cumulative = 1.01955e-19
DICPCG:  Solving for p, Initial residual = 0.00705982, Final residual = 9.72013e-07, No Iterations 616
time step continuity errors : sum local = 2.27844e-11, global = -4.62453e-21, cumulative = 9.733e-20
ExecutionTime = 107.34 s  ClockTime = 107 s

Time = 0.0925

Courant Number mean: 0.0688624 max: 0.973112
smoothSolver:  Solving for Ux, Initial residual = 0.00445746, Final residual = 8.06637e-06, No Iterations 26
smoothSolver:  Solving for Uy, Initial residual = 0.00648458, Final residual = 9.70002e-06, No Iterations 27
DICPCG:  Solving for p, Initial residual = 0.00707675, Final residual = 0.000353085, No Iterations 234
time step continuity errors : sum local = 8.63069e-09, global = 4.06467e-20, cumulative = 1.37977e-19
DICPCG:  Solving for p, Initial residual = 0.00667988, Final residual = 9.50219e-07, No Iterations 616
time step continuity errors : sum local = 2.22785e-11, global = -1.22862e-20, cumulative = 1.2569e-19
ExecutionTime = 109.84 s  ClockTime = 110 s

Time = 0.095

Courant Number mean: 0.0696392 max: 0.973444
smoothSolver:  Solving for Ux, Initial residual = 0.0043498, Final residual = 7.88359e-06, No Iterations 26
smoothSolver:  Solving for Uy, Initial residual = 0.00628669, Final residual = 9.40306e-06, No Iterations 27
DICPCG:  Solving for p, Initial residual = 0.00702637, Final residual = 0.000343173, No Iterations 412
time step continuity errors : sum local = 8.05779e-09, global = -1.50088e-20, cumulative = 1.10682e-19
DICPCG:  Solving for p, Initial residual = 0.00650759, Final residual = 9.76282e-07, No Iterations 623
time step continuity errors : sum local = 2.29145e-11, global = 2.20287e-20, cumulative = 1.3271e-19
ExecutionTime = 112.95 s  ClockTime = 113 s

Time = 0.0975

Courant Number mean: 0.0704013 max: 0.973763
smoothSolver:  Solving for Ux, Initial residual = 0.00423066, Final residual = 9.7871e-06, No Iterations 25
smoothSolver:  Solving for Uy, Initial residual = 0.00612527, Final residual = 9.16755e-06, No Iterations 27
DICPCG:  Solving for p, Initial residual = 0.00679691, Final residual = 0.000338593, No Iterations 233
time step continuity errors : sum local = 7.93627e-09, global = -2.21176e-21, cumulative = 1.30499e-19
DICPCG:  Solving for p, Initial residual = 0.00626056, Final residual = 9.79275e-07, No Iterations 612
time step continuity errors : sum local = 2.29641e-11, global = 6.44929e-22, cumulative = 1.31144e-19
ExecutionTime = 115.58 s  ClockTime = 115 s

Time = 0.1

Courant Number mean: 0.0711487 max: 0.974068
smoothSolver:  Solving for Ux, Initial residual = 0.00412567, Final residual = 9.5589e-06, No Iterations 25
smoothSolver:  Solving for Uy, Initial residual = 0.00596001, Final residual = 8.92258e-06, No Iterations 27
DICPCG:  Solving for p, Initial residual = 0.00663436, Final residual = 0.000325998, No Iterations 234
time step continuity errors : sum local = 8.07619e-09, global = -1.35864e-20, cumulative = 1.17557e-19
DICPCG:  Solving for p, Initial residual = 0.00630482, Final residual = 9.70179e-07, No Iterations 613
time step continuity errors : sum local = 2.27634e-11, global = 1.25382e-20, cumulative = 1.30095e-19
ExecutionTime = 118.43 s  ClockTime = 118 s

Time = 0.1025

Courant Number mean: 0.0718836 max: 0.974362
smoothSolver:  Solving for Ux, Initial residual = 0.00401856, Final residual = 9.32344e-06, No Iterations 25
smoothSolver:  Solving for Uy, Initial residual = 0.00581788, Final residual = 8.71228e-06, No Iterations 27
DICPCG:  Solving for p, Initial residual = 0.00658943, Final residual = 0.000329329, No Iterations 481
time step continuity errors : sum local = 7.73707e-09, global = -7.19304e-21, cumulative = 1.22902e-19
DICPCG:  Solving for p, Initial residual = 0.00608826, Final residual = 9.70553e-07, No Iterations 623
time step continuity errors : sum local = 2.28092e-11, global = -1.11213e-20, cumulative = 1.11781e-19
ExecutionTime = 121.62 s  ClockTime = 121 s

Time = 0.105

Courant Number mean: 0.0726058 max: 0.974645
smoothSolver:  Solving for Ux, Initial residual = 0.00392964, Final residual = 9.1287e-06, No Iterations 25
smoothSolver:  Solving for Uy, Initial residual = 0.00565614, Final residual = 8.47101e-06, No Iterations 27
DICPCG:  Solving for p, Initial residual = 0.00630032, Final residual = 0.000303931, No Iterations 240
time step continuity errors : sum local = 7.72785e-09, global = -1.51952e-21, cumulative = 1.10261e-19
DICPCG:  Solving for p, Initial residual = 0.00581574, Final residual = 9.42144e-07, No Iterations 612
time step continuity errors : sum local = 2.21064e-11, global = -1.35866e-20, cumulative = 9.66748e-20
ExecutionTime = 124.13 s  ClockTime = 124 s

Time = 0.1075

Courant Number mean: 0.0733152 max: 0.974917
smoothSolver:  Solving for Ux, Initial residual = 0.00382888, Final residual = 8.906e-06, No Iterations 25
smoothSolver:  Solving for Uy, Initial residual = 0.00553522, Final residual = 8.2923e-06, No Iterations 27
DICPCG:  Solving for p, Initial residual = 0.00648257, Final residual = 0.000317522, No Iterations 481
time step continuity errors : sum local = 7.4617e-09, global = 5.63721e-21, cumulative = 1.02312e-19
DICPCG:  Solving for p, Initial residual = 0.00594708, Final residual = 9.88151e-07, No Iterations 626
time step continuity errors : sum local = 2.32407e-11, global = 9.90728e-21, cumulative = 1.12219e-19
ExecutionTime = 127.29 s  ClockTime = 127 s

Time = 0.11

Courant Number mean: 0.0740127 max: 0.97518
smoothSolver:  Solving for Ux, Initial residual = 0.00375062, Final residual = 8.73407e-06, No Iterations 25
smoothSolver:  Solving for Uy, Initial residual = 0.0053815, Final residual = 8.06235e-06, No Iterations 27
DICPCG:  Solving for p, Initial residual = 0.00613649, Final residual = 0.00030678, No Iterations 246
time step continuity errors : sum local = 7.96615e-09, global = 8.03732e-21, cumulative = 1.20257e-19
DICPCG:  Solving for p, Initial residual = 0.00565776, Final residual = 9.60868e-07, No Iterations 612
time step continuity errors : sum local = 2.25536e-11, global = -7.94002e-21, cumulative = 1.12317e-19
ExecutionTime = 129.82 s  ClockTime = 130 s

Time = 0.1125

Courant Number mean: 0.0746995 max: 0.975434
smoothSolver:  Solving for Ux, Initial residual = 0.0036557, Final residual = 8.52289e-06, No Iterations 25
smoothSolver:  Solving for Uy, Initial residual = 0.00527972, Final residual = 7.91207e-06, No Iterations 27
DICPCG:  Solving for p, Initial residual = 0.00638302, Final residual = 0.000305912, No Iterations 481
time step continuity errors : sum local = 7.19157e-09, global = 8.10904e-21, cumulative = 1.20426e-19
DICPCG:  Solving for p, Initial residual = 0.0058561, Final residual = 9.79575e-07, No Iterations 625
time step continuity errors : sum local = 2.30712e-11, global = -8.29157e-21, cumulative = 1.12134e-19
ExecutionTime = 132.99 s  ClockTime = 133 s

Time = 0.115

Courant Number mean: 0.0753752 max: 0.975679
smoothSolver:  Solving for Ux, Initial residual = 0.0035867, Final residual = 8.37097e-06, No Iterations 25
smoothSolver:  Solving for Uy, Initial residual = 0.00513172, Final residual = 9.78355e-06, No Iterations 26
DICPCG:  Solving for p, Initial residual = 0.00593744, Final residual = 0.000281907, No Iterations 479
time step continuity errors : sum local = 6.62816e-09, global = 1.98357e-20, cumulative = 1.3197e-19
DICPCG:  Solving for p, Initial residual = 0.00550627, Final residual = 9.80308e-07, No Iterations 611
time step continuity errors : sum local = 2.30126e-11, global = 5.34418e-21, cumulative = 1.37314e-19
ExecutionTime = 136.1 s  ClockTime = 136 s

Time = 0.1175

Courant Number mean: 0.0760396 max: 0.975916
smoothSolver:  Solving for Ux, Initial residual = 0.00350874, Final residual = 8.19895e-06, No Iterations 25
smoothSolver:  Solving for Uy, Initial residual = 0.00501412, Final residual = 9.56497e-06, No Iterations 26
DICPCG:  Solving for p, Initial residual = 0.00549141, Final residual = 0.000268424, No Iterations 235
time step continuity errors : sum local = 6.33057e-09, global = -5.91098e-21, cumulative = 1.31403e-19
DICPCG:  Solving for p, Initial residual = 0.00507946, Final residual = 9.60138e-07, No Iterations 449
time step continuity errors : sum local = 2.39928e-11, global = 3.01559e-20, cumulative = 1.61559e-19
ExecutionTime = 138.16 s  ClockTime = 138 s

Time = 0.12

Courant Number mean: 0.0766942 max: 0.976145
smoothSolver:  Solving for Ux, Initial residual = 0.00343435, Final residual = 8.03361e-06, No Iterations 25
smoothSolver:  Solving for Uy, Initial residual = 0.00490226, Final residual = 9.35306e-06, No Iterations 26
DICPCG:  Solving for p, Initial residual = 0.00542801, Final residual = 0.000260266, No Iterations 235
time step continuity errors : sum local = 6.34878e-09, global = 8.79579e-22, cumulative = 1.62438e-19
DICPCG:  Solving for p, Initial residual = 0.00519853, Final residual = 9.54841e-07, No Iterations 610
time step continuity errors : sum local = 2.24353e-11, global = 9.89313e-22, cumulative = 1.63428e-19
ExecutionTime = 140.66 s  ClockTime = 140 s

Time = 0.1225

Courant Number mean: 0.0773392 max: 0.976367
smoothSolver:  Solving for Ux, Initial residual = 0.00336034, Final residual = 7.86824e-06, No Iterations 25
smoothSolver:  Solving for Uy, Initial residual = 0.0048033, Final residual = 9.16548e-06, No Iterations 26
DICPCG:  Solving for p, Initial residual = 0.00525864, Final residual = 0.000247747, No Iterations 479
time step continuity errors : sum local = 5.82866e-09, global = -6.83237e-21, cumulative = 1.56595e-19
DICPCG:  Solving for p, Initial residual = 0.00488653, Final residual = 9.74788e-07, No Iterations 608
time step continuity errors : sum local = 2.29437e-11, global = 9.23981e-21, cumulative = 1.65835e-19
ExecutionTime = 143.78 s  ClockTime = 144 s

Time = 0.125

Courant Number mean: 0.0779744 max: 0.976582
smoothSolver:  Solving for Ux, Initial residual = 0.00329613, Final residual = 9.83998e-06, No Iterations 24
smoothSolver:  Solving for Uy, Initial residual = 0.00469386, Final residual = 8.9577e-06, No Iterations 26
DICPCG:  Solving for p, Initial residual = 0.00507728, Final residual = 0.000249039, No Iterations 238
time step continuity errors : sum local = 6.25497e-09, global = -4.71027e-21, cumulative = 1.61125e-19
DICPCG:  Solving for p, Initial residual = 0.00471575, Final residual = 9.98702e-07, No Iterations 607
time step continuity errors : sum local = 2.34667e-11, global = -2.48665e-21, cumulative = 1.58638e-19
ExecutionTime = 146.27 s  ClockTime = 146 s

Time = 0.1275

Courant Number mean: 0.0785997 max: 0.97679
smoothSolver:  Solving for Ux, Initial residual = 0.0032247, Final residual = 9.63537e-06, No Iterations 24
smoothSolver:  Solving for Uy, Initial residual = 0.00460832, Final residual = 8.79542e-06, No Iterations 26
DICPCG:  Solving for p, Initial residual = 0.00532944, Final residual = 0.000265808, No Iterations 480
time step continuity errors : sum local = 6.25856e-09, global = 6.10154e-21, cumulative = 1.6474e-19
DICPCG:  Solving for p, Initial residual = 0.00491454, Final residual = 9.82443e-07, No Iterations 619
time step continuity errors : sum local = 2.31387e-11, global = -6.97164e-21, cumulative = 1.57768e-19
ExecutionTime = 149.42 s  ClockTime = 149 s

Time = 0.13

Courant Number mean: 0.0792164 max: 0.976993
smoothSolver:  Solving for Ux, Initial residual = 0.00316766, Final residual = 9.47261e-06, No Iterations 24
smoothSolver:  Solving for Uy, Initial residual = 0.00450201, Final residual = 8.59294e-06, No Iterations 26
DICPCG:  Solving for p, Initial residual = 0.00513037, Final residual = 0.000252196, No Iterations 240
time step continuity errors : sum local = 6.46464e-09, global = -1.02744e-20, cumulative = 1.47494e-19
DICPCG:  Solving for p, Initial residual = 0.00474495, Final residual = 9.63675e-07, No Iterations 607
time step continuity errors : sum local = 2.26607e-11, global = -8.10673e-21, cumulative = 1.39387e-19
ExecutionTime = 151.91 s  ClockTime = 152 s

Time = 0.1325

Courant Number mean: 0.0798247 max: 0.977189
smoothSolver:  Solving for Ux, Initial residual = 0.00309954, Final residual = 9.27646e-06, No Iterations 24
smoothSolver:  Solving for Uy, Initial residual = 0.00442873, Final residual = 8.45418e-06, No Iterations 26
DICPCG:  Solving for p, Initial residual = 0.00529989, Final residual = 0.000255119, No Iterations 481
time step continuity errors : sum local = 6.00706e-09, global = 1.33735e-20, cumulative = 1.52761e-19
DICPCG:  Solving for p, Initial residual = 0.00488787, Final residual = 9.86809e-07, No Iterations 619
time step continuity errors : sum local = 2.32572e-11, global = -3.94301e-20, cumulative = 1.1333e-19
ExecutionTime = 155.07 s  ClockTime = 155 s

Time = 0.135

Courant Number mean: 0.0804244 max: 0.977379
smoothSolver:  Solving for Ux, Initial residual = 0.00304847, Final residual = 9.13052e-06, No Iterations 24
smoothSolver:  Solving for Uy, Initial residual = 0.00432506, Final residual = 8.25646e-06, No Iterations 26
DICPCG:  Solving for p, Initial residual = 0.00496769, Final residual = 0.000238293, No Iterations 250
time step continuity errors : sum local = 6.27602e-09, global = -2.36985e-22, cumulative = 1.13093e-19
DICPCG:  Solving for p, Initial residual = 0.00457629, Final residual = 9.81145e-07, No Iterations 608
time step continuity errors : sum local = 2.30863e-11, global = -4.54119e-21, cumulative = 1.08552e-19
ExecutionTime = 157.59 s  ClockTime = 157 s

Time = 0.1375

Courant Number mean: 0.0810155 max: 0.977564
smoothSolver:  Solving for Ux, Initial residual = 0.00298328, Final residual = 8.942e-06, No Iterations 24
smoothSolver:  Solving for Uy, Initial residual = 0.00426364, Final residual = 8.13994e-06, No Iterations 26
DICPCG:  Solving for p, Initial residual = 0.00516391, Final residual = 0.000250637, No Iterations 481
time step continuity errors : sum local = 5.90109e-09, global = 8.25426e-21, cumulative = 1.16807e-19
DICPCG:  Solving for p, Initial residual = 0.00474929, Final residual = 9.98238e-07, No Iterations 623
time step continuity errors : sum local = 2.35527e-11, global = -3.57578e-21, cumulative = 1.13231e-19
ExecutionTime = 160.75 s  ClockTime = 161 s

Time = 0.14

Courant Number mean: 0.0815989 max: 0.977744
smoothSolver:  Solving for Ux, Initial residual = 0.00293771, Final residual = 8.81165e-06, No Iterations 24
smoothSolver:  Solving for Uy, Initial residual = 0.00416095, Final residual = 7.94428e-06, No Iterations 26
DICPCG:  Solving for p, Initial residual = 0.00487585, Final residual = 0.00024282, No Iterations 479
time step continuity errors : sum local = 5.72136e-09, global = 7.23375e-21, cumulative = 1.20465e-19
DICPCG:  Solving for p, Initial residual = 0.00453155, Final residual = 9.58058e-07, No Iterations 608
time step continuity errors : sum local = 2.25417e-11, global = 1.22609e-20, cumulative = 1.32725e-19
ExecutionTime = 163.88 s  ClockTime = 164 s

Time = 0.1425

Courant Number mean: 0.0821749 max: 0.977919
smoothSolver:  Solving for Ux, Initial residual = 0.00288433, Final residual = 8.65906e-06, No Iterations 24
smoothSolver:  Solving for Uy, Initial residual = 0.00408231, Final residual = 9.92049e-06, No Iterations 25
DICPCG:  Solving for p, Initial residual = 0.00458115, Final residual = 0.000225129, No Iterations 236
time step continuity errors : sum local = 5.29594e-09, global = 9.65995e-21, cumulative = 1.42385e-19
DICPCG:  Solving for p, Initial residual = 0.0042401, Final residual = 9.59055e-07, No Iterations 598
time step continuity errors : sum local = 2.25873e-11, global = -4.5468e-20, cumulative = 9.69174e-20
ExecutionTime = 166.34 s  ClockTime = 166 s

Time = 0.145

Courant Number mean: 0.0827433 max: 0.978089
smoothSolver:  Solving for Ux, Initial residual = 0.00283306, Final residual = 8.5113e-06, No Iterations 24
smoothSolver:  Solving for Uy, Initial residual = 0.00400682, Final residual = 9.7381e-06, No Iterations 25
DICPCG:  Solving for p, Initial residual = 0.00446707, Final residual = 0.00022118, No Iterations 236
time step continuity errors : sum local = 5.52517e-09, global = 2.36794e-20, cumulative = 1.20597e-19
DICPCG:  Solving for p, Initial residual = 0.00428306, Final residual = 9.93777e-07, No Iterations 602
time step continuity errors : sum local = 2.33853e-11, global = -2.54165e-20, cumulative = 9.51803e-20
ExecutionTime = 168.8 s  ClockTime = 169 s

Time = 0.1475

Courant Number mean: 0.0833041 max: 0.978256
smoothSolver:  Solving for Ux, Initial residual = 0.00277979, Final residual = 8.35637e-06, No Iterations 24
smoothSolver:  Solving for Uy, Initial residual = 0.00394593, Final residual = 9.59011e-06, No Iterations 25
DICPCG:  Solving for p, Initial residual = 0.00444955, Final residual = 0.000212613, No Iterations 480
time step continuity errors : sum local = 5.01098e-09, global = 1.16476e-20, cumulative = 1.06828e-19
DICPCG:  Solving for p, Initial residual = 0.00413206, Final residual = 9.75667e-07, No Iterations 601
time step continuity errors : sum local = 2.29987e-11, global = -1.06717e-20, cumulative = 9.61561e-20
ExecutionTime = 171.91 s  ClockTime = 172 s

Time = 0.15

Courant Number mean: 0.0838576 max: 0.978417
smoothSolver:  Solving for Ux, Initial residual = 0.00273668, Final residual = 8.23191e-06, No Iterations 24
smoothSolver:  Solving for Uy, Initial residual = 0.00386686, Final residual = 9.39816e-06, No Iterations 25
DICPCG:  Solving for p, Initial residual = 0.00432499, Final residual = 0.000214852, No Iterations 240
time step continuity errors : sum local = 5.51204e-09, global = 2.22638e-20, cumulative = 1.1842e-19
DICPCG:  Solving for p, Initial residual = 0.00400935, Final residual = 9.88192e-07, No Iterations 607
time step continuity errors : sum local = 2.32775e-11, global = 3.31539e-20, cumulative = 1.51574e-19
ExecutionTime = 174.42 s  ClockTime = 174 s

Time = 0.1525

Courant Number mean: 0.0844048 max: 0.978575
smoothSolver:  Solving for Ux, Initial residual = 0.00268473, Final residual = 8.08056e-06, No Iterations 24
smoothSolver:  Solving for Uy, Initial residual = 0.00381353, Final residual = 9.26895e-06, No Iterations 25
DICPCG:  Solving for p, Initial residual = 0.00454389, Final residual = 0.000220433, No Iterations 481
time step continuity errors : sum local = 5.19654e-09, global = -7.00887e-21, cumulative = 1.44565e-19
DICPCG:  Solving for p, Initial residual = 0.00419251, Final residual = 9.85153e-07, No Iterations 618
time step continuity errors : sum local = 2.32457e-11, global = 2.40118e-20, cumulative = 1.68577e-19
ExecutionTime = 177.54 s  ClockTime = 177 s

Time = 0.155

Courant Number mean: 0.0849453 max: 0.978728
smoothSolver:  Solving for Ux, Initial residual = 0.00264619, Final residual = 7.96911e-06, No Iterations 24
smoothSolver:  Solving for Uy, Initial residual = 0.00373489, Final residual = 9.07806e-06, No Iterations 25
DICPCG:  Solving for p, Initial residual = 0.00432383, Final residual = 0.000215588, No Iterations 248
time step continuity errors : sum local = 5.66252e-09, global = -1.42849e-20, cumulative = 1.54292e-19
DICPCG:  Solving for p, Initial residual = 0.00399149, Final residual = 9.8695e-07, No Iterations 606
time step continuity errors : sum local = 2.32613e-11, global = -2.1259e-20, cumulative = 1.33033e-19
ExecutionTime = 180.06 s  ClockTime = 180 s

Time = 0.1575

Courant Number mean: 0.0854791 max: 0.978878
smoothSolver:  Solving for Ux, Initial residual = 0.00259573, Final residual = 9.95986e-06, No Iterations 23
smoothSolver:  Solving for Uy, Initial residual = 0.00369073, Final residual = 8.97055e-06, No Iterations 25
DICPCG:  Solving for p, Initial residual = 0.00453414, Final residual = 0.000223816, No Iterations 481
time step continuity errors : sum local = 5.27625e-09, global = 2.83627e-21, cumulative = 1.35869e-19
DICPCG:  Solving for p, Initial residual = 0.00417266, Final residual = 9.71005e-07, No Iterations 622
time step continuity errors : sum local = 2.29299e-11, global = -2.20325e-20, cumulative = 1.13837e-19
ExecutionTime = 183.22 s  ClockTime = 183 s

Time = 0.16

Courant Number mean: 0.0860059 max: 0.979024
smoothSolver:  Solving for Ux, Initial residual = 0.00256124, Final residual = 9.83295e-06, No Iterations 23
smoothSolver:  Solving for Uy, Initial residual = 0.00361142, Final residual = 8.77849e-06, No Iterations 25
DICPCG:  Solving for p, Initial residual = 0.00429313, Final residual = 0.00021376, No Iterations 479
time step continuity errors : sum local = 5.04419e-09, global = 3.29951e-20, cumulative = 1.46832e-19
DICPCG:  Solving for p, Initial residual = 0.00398939, Final residual = 9.65255e-07, No Iterations 606
time step continuity errors : sum local = 2.27486e-11, global = -4.34907e-20, cumulative = 1.03341e-19
ExecutionTime = 186.32 s  ClockTime = 186 s

Time = 0.1625

Courant Number mean: 0.0865266 max: 0.979167
smoothSolver:  Solving for Ux, Initial residual = 0.00251994, Final residual = 9.68062e-06, No Iterations 23
smoothSolver:  Solving for Uy, Initial residual = 0.00355153, Final residual = 8.63726e-06, No Iterations 25
DICPCG:  Solving for p, Initial residual = 0.00402087, Final residual = 0.000200271, No Iterations 237
time step continuity errors : sum local = 4.73719e-09, global = -1.05744e-20, cumulative = 9.27668e-20
DICPCG:  Solving for p, Initial residual = 0.00372195, Final residual = 9.88723e-07, No Iterations 600
time step continuity errors : sum local = 2.33229e-11, global = 1.54551e-20, cumulative = 1.08222e-19
ExecutionTime = 188.76 s  ClockTime = 189 s

Time = 0.165

Courant Number mean: 0.0870417 max: 0.979306
smoothSolver:  Solving for Ux, Initial residual = 0.00248033, Final residual = 9.53391e-06, No Iterations 23
smoothSolver:  Solving for Uy, Initial residual = 0.00349356, Final residual = 8.49682e-06, No Iterations 25
DICPCG:  Solving for p, Initial residual = 0.00391137, Final residual = 0.0001917, No Iterations 241
time step continuity errors : sum local = 4.91285e-09, global = 4.04764e-21, cumulative = 1.1227e-19
DICPCG:  Solving for p, Initial residual = 0.00361798, Final residual = 9.82031e-07, No Iterations 595
time step continuity errors : sum local = 2.31416e-11, global = 9.96264e-21, cumulative = 1.22232e-19
ExecutionTime = 191.22 s  ClockTime = 191 s

Time = 0.1675

Courant Number mean: 0.0875508 max: 0.979442
smoothSolver:  Solving for Ux, Initial residual = 0.00243724, Final residual = 9.37219e-06, No Iterations 23
smoothSolver:  Solving for Uy, Initial residual = 0.00345262, Final residual = 8.39596e-06, No Iterations 25
DICPCG:  Solving for p, Initial residual = 0.00412137, Final residual = 0.000204185, No Iterations 484
time step continuity errors : sum local = 4.81625e-09, global = 1.12438e-20, cumulative = 1.33476e-19
DICPCG:  Solving for p, Initial residual = 0.00382403, Final residual = 9.83335e-07, No Iterations 604
time step continuity errors : sum local = 2.3228e-11, global = 1.24873e-20, cumulative = 1.45963e-19
ExecutionTime = 194.34 s  ClockTime = 194 s

Time = 0.17

Courant Number mean: 0.088054 max: 0.979575
smoothSolver:  Solving for Ux, Initial residual = 0.00240513, Final residual = 9.25295e-06, No Iterations 23
smoothSolver:  Solving for Uy, Initial residual = 0.0033871, Final residual = 8.23689e-06, No Iterations 25
DICPCG:  Solving for p, Initial residual = 0.00391038, Final residual = 0.000195482, No Iterations 247
time step continuity errors : sum local = 5.11312e-09, global = -1.46881e-20, cumulative = 1.31275e-19
DICPCG:  Solving for p, Initial residual = 0.00361124, Final residual = 9.76511e-07, No Iterations 604
time step continuity errors : sum local = 2.30359e-11, global = 5.8709e-20, cumulative = 1.89984e-19
ExecutionTime = 196.91 s  ClockTime = 197 s

Time = 0.1725

Courant Number mean: 0.0885512 max: 0.979705
smoothSolver:  Solving for Ux, Initial residual = 0.00236291, Final residual = 9.09455e-06, No Iterations 23
smoothSolver:  Solving for Uy, Initial residual = 0.00335089, Final residual = 8.14843e-06, No Iterations 25
DICPCG:  Solving for p, Initial residual = 0.00409796, Final residual = 0.000204831, No Iterations 483
time step continuity errors : sum local = 4.83267e-09, global = 1.02831e-20, cumulative = 2.00267e-19
DICPCG:  Solving for p, Initial residual = 0.00378476, Final residual = 9.6396e-07, No Iterations 619
time step continuity errors : sum local = 2.27759e-11, global = 8.84124e-21, cumulative = 2.09109e-19
ExecutionTime = 200.04 s  ClockTime = 200 s

Time = 0.175

Courant Number mean: 0.0890432 max: 0.979832
smoothSolver:  Solving for Ux, Initial residual = 0.00233403, Final residual = 8.98759e-06, No Iterations 23
smoothSolver:  Solving for Uy, Initial residual = 0.00328504, Final residual = 7.98911e-06, No Iterations 25
DICPCG:  Solving for p, Initial residual = 0.003883, Final residual = 0.000190961, No Iterations 478
time step continuity errors : sum local = 4.51015e-09, global = -2.0859e-20, cumulative = 1.8825e-19
DICPCG:  Solving for p, Initial residual = 0.00359708, Final residual = 9.92178e-07, No Iterations 601
time step continuity errors : sum local = 2.34074e-11, global = 1.50641e-20, cumulative = 2.03314e-19
ExecutionTime = 203.11 s  ClockTime = 203 s

Time = 0.1775

Courant Number mean: 0.0895301 max: 0.979957
smoothSolver:  Solving for Ux, Initial residual = 0.00229928, Final residual = 8.85861e-06, No Iterations 23
smoothSolver:  Solving for Uy, Initial residual = 0.00323524, Final residual = 7.87161e-06, No Iterations 25
DICPCG:  Solving for p, Initial residual = 0.00370445, Final residual = 0.000174909, No Iterations 238
time step continuity errors : sum local = 4.14009e-09, global = 2.19555e-21, cumulative = 2.05509e-19
DICPCG:  Solving for p, Initial residual = 0.00342713, Final residual = 9.99769e-07, No Iterations 597
time step continuity errors : sum local = 2.36142e-11, global = -2.68272e-21, cumulative = 2.02826e-19
ExecutionTime = 205.54 s  ClockTime = 205 s

Time = 0.18

Courant Number mean: 0.0900117 max: 0.980078
smoothSolver:  Solving for Ux, Initial residual = 0.0022658, Final residual = 8.73381e-06, No Iterations 23
smoothSolver:  Solving for Uy, Initial residual = 0.00318694, Final residual = 9.86417e-06, No Iterations 24
DICPCG:  Solving for p, Initial residual = 0.00353044, Final residual = 0.000175989, No Iterations 238
time step continuity errors : sum local = 4.48738e-09, global = 6.8821e-22, cumulative = 2.03515e-19
DICPCG:  Solving for p, Initial residual = 0.00338255, Final residual = 9.78042e-07, No Iterations 596
time step continuity errors : sum local = 2.30972e-11, global = -7.61158e-21, cumulative = 1.95903e-19
ExecutionTime = 207.96 s  ClockTime = 208 s

Time = 0.1825

Courant Number mean: 0.090488 max: 0.980198
smoothSolver:  Solving for Ux, Initial residual = 0.0022295, Final residual = 8.59687e-06, No Iterations 23
smoothSolver:  Solving for Uy, Initial residual = 0.00315268, Final residual = 9.75666e-06, No Iterations 24
DICPCG:  Solving for p, Initial residual = 0.00364544, Final residual = 0.000179876, No Iterations 485
time step continuity errors : sum local = 4.24672e-09, global = -1.00725e-20, cumulative = 1.85831e-19
DICPCG:  Solving for p, Initial residual = 0.00339037, Final residual = 9.90294e-07, No Iterations 595
time step continuity errors : sum local = 2.34016e-11, global = -1.91161e-20, cumulative = 1.66714e-19
ExecutionTime = 211.06 s  ClockTime = 211 s

Time = 0.185

Courant Number mean: 0.090959 max: 0.980314
smoothSolver:  Solving for Ux, Initial residual = 0.00220229, Final residual = 8.49531e-06, No Iterations 23
smoothSolver:  Solving for Uy, Initial residual = 0.00309796, Final residual = 9.58764e-06, No Iterations 24
DICPCG:  Solving for p, Initial residual = 0.00353731, Final residual = 0.000171852, No Iterations 247
time step continuity errors : sum local = 4.49982e-09, global = 6.19068e-20, cumulative = 2.28621e-19
DICPCG:  Solving for p, Initial residual = 0.00326903, Final residual = 9.52902e-07, No Iterations 598
time step continuity errors : sum local = 2.25011e-11, global = 4.27325e-21, cumulative = 2.32894e-19
ExecutionTime = 213.54 s  ClockTime = 213 s

Time = 0.1875

Courant Number mean: 0.0914251 max: 0.980429
smoothSolver:  Solving for Ux, Initial residual = 0.00216638, Final residual = 8.35966e-06, No Iterations 23
smoothSolver:  Solving for Uy, Initial residual = 0.0030679, Final residual = 9.49388e-06, No Iterations 24
DICPCG:  Solving for p, Initial residual = 0.00371534, Final residual = 0.000185487, No Iterations 481
time step continuity errors : sum local = 4.38029e-09, global = 8.94588e-21, cumulative = 2.4184e-19
DICPCG:  Solving for p, Initial residual = 0.00344353, Final residual = 9.89805e-07, No Iterations 598
time step continuity errors : sum local = 2.34077e-11, global = 1.32065e-20, cumulative = 2.55047e-19
ExecutionTime = 216.62 s  ClockTime = 216 s

Time = 0.19

Courant Number mean: 0.0918868 max: 0.980541
smoothSolver:  Solving for Ux, Initial residual = 0.00214188, Final residual = 8.26858e-06, No Iterations 23
smoothSolver:  Solving for Uy, Initial residual = 0.00301215, Final residual = 9.32233e-06, No Iterations 24
DICPCG:  Solving for p, Initial residual = 0.0035082, Final residual = 0.000174601, No Iterations 477
time step continuity errors : sum local = 4.12599e-09, global = 4.74842e-21, cumulative = 2.59795e-19
DICPCG:  Solving for p, Initial residual = 0.0032585, Final residual = 9.65535e-07, No Iterations 597
time step continuity errors : sum local = 2.28002e-11, global = -3.80459e-20, cumulative = 2.21749e-19
ExecutionTime = 219.77 s  ClockTime = 220 s

Time = 0.1925

Courant Number mean: 0.0923438 max: 0.98065
smoothSolver:  Solving for Ux, Initial residual = 0.00211214, Final residual = 8.15762e-06, No Iterations 23
smoothSolver:  Solving for Uy, Initial residual = 0.00297038, Final residual = 9.19672e-06, No Iterations 24
DICPCG:  Solving for p, Initial residual = 0.00339119, Final residual = 0.000157327, No Iterations 238
time step continuity errors : sum local = 3.71995e-09, global = 6.5095e-21, cumulative = 2.28259e-19
DICPCG:  Solving for p, Initial residual = 0.00313984, Final residual = 9.60959e-07, No Iterations 444
time step continuity errors : sum local = 2.27881e-11, global = -4.94536e-21, cumulative = 2.23314e-19
ExecutionTime = 221.83 s  ClockTime = 222 s

Time = 0.195

Courant Number mean: 0.0927961 max: 0.980758
smoothSolver:  Solving for Ux, Initial residual = 0.0020832, Final residual = 8.04916e-06, No Iterations 23
smoothSolver:  Solving for Uy, Initial residual = 0.00292993, Final residual = 9.07219e-06, No Iterations 24
DICPCG:  Solving for p, Initial residual = 0.00325057, Final residual = 0.000157389, No Iterations 237
time step continuity errors : sum local = 3.83861e-09, global = -1.09652e-20, cumulative = 2.12348e-19
DICPCG:  Solving for p, Initial residual = 0.00308465, Final residual = 9.64605e-07, No Iterations 594
time step continuity errors : sum local = 2.27867e-11, global = -1.64996e-20, cumulative = 1.95849e-19
ExecutionTime = 224.29 s  ClockTime = 224 s

Time = 0.1975

Courant Number mean: 0.0932437 max: 0.980863
smoothSolver:  Solving for Ux, Initial residual = 0.00205417, Final residual = 7.9397e-06, No Iterations 23
smoothSolver:  Solving for Uy, Initial residual = 0.0028947, Final residual = 8.96307e-06, No Iterations 24
DICPCG:  Solving for p, Initial residual = 0.00321719, Final residual = 0.000160237, No Iterations 485
time step continuity errors : sum local = 3.78869e-09, global = 6.00509e-21, cumulative = 2.01854e-19
DICPCG:  Solving for p, Initial residual = 0.0029932, Final residual = 9.98607e-07, No Iterations 592
time step continuity errors : sum local = 2.3604e-11, global = 2.37816e-20, cumulative = 2.25635e-19
ExecutionTime = 227.38 s  ClockTime = 227 s

Time = 0.2

Courant Number mean: 0.0936867 max: 0.980967
smoothSolver:  Solving for Ux, Initial residual = 0.00202888, Final residual = 9.98629e-06, No Iterations 22
smoothSolver:  Solving for Uy, Initial residual = 0.00285361, Final residual = 8.83579e-06, No Iterations 24
DICPCG:  Solving for p, Initial residual = 0.00324517, Final residual = 0.000158041, No Iterations 241
time step continuity errors : sum local = 3.9398e-09, global = 2.09111e-21, cumulative = 2.27727e-19
DICPCG:  Solving for p, Initial residual = 0.0030151, Final residual = 9.74439e-07, No Iterations 596
time step continuity errors : sum local = 2.30309e-11, global = 2.65051e-20, cumulative = 2.54232e-19
ExecutionTime = 230.12 s  ClockTime = 230 s

Time = 0.2025

Courant Number mean: 0.0941255 max: 0.981068
smoothSolver:  Solving for Ux, Initial residual = 0.00199981, Final residual = 9.84631e-06, No Iterations 22
smoothSolver:  Solving for Uy, Initial residual = 0.00282224, Final residual = 8.73869e-06, No Iterations 24
DICPCG:  Solving for p, Initial residual = 0.00329073, Final residual = 0.000163023, No Iterations 487
time step continuity errors : sum local = 3.85424e-09, global = -2.94045e-21, cumulative = 2.51291e-19
DICPCG:  Solving for p, Initial residual = 0.00306029, Final residual = 9.67404e-07, No Iterations 590
time step continuity errors : sum local = 2.2862e-11, global = -3.00326e-20, cumulative = 2.21259e-19
ExecutionTime = 233.21 s  ClockTime = 233 s

Time = 0.205

Courant Number mean: 0.0945601 max: 0.981168
smoothSolver:  Solving for Ux, Initial residual = 0.00197686, Final residual = 9.73638e-06, No Iterations 22
smoothSolver:  Solving for Uy, Initial residual = 0.00278068, Final residual = 8.61002e-06, No Iterations 24
DICPCG:  Solving for p, Initial residual = 0.00319793, Final residual = 0.000153586, No Iterations 243
time step continuity errors : sum local = 3.91843e-09, global = -2.81397e-20, cumulative = 1.93119e-19
DICPCG:  Solving for p, Initial residual = 0.00296784, Final residual = 9.41792e-07, No Iterations 597
time step continuity errors : sum local = 2.22746e-11, global = -2.07333e-20, cumulative = 1.72386e-19
ExecutionTime = 235.66 s  ClockTime = 235 s

Time = 0.2075

Courant Number mean: 0.0949905 max: 0.981265
smoothSolver:  Solving for Ux, Initial residual = 0.00194817, Final residual = 9.59782e-06, No Iterations 22
smoothSolver:  Solving for Uy, Initial residual = 0.0027538, Final residual = 8.52643e-06, No Iterations 24
DICPCG:  Solving for p, Initial residual = 0.00328009, Final residual = 0.000160751, No Iterations 488
time step continuity errors : sum local = 3.80037e-09, global = -4.00353e-21, cumulative = 1.68382e-19
DICPCG:  Solving for p, Initial residual = 0.00303894, Final residual = 9.69754e-07, No Iterations 590
time step continuity errors : sum local = 2.2944e-11, global = -1.41804e-20, cumulative = 1.54202e-19
ExecutionTime = 238.75 s  ClockTime = 239 s

Time = 0.21

Courant Number mean: 0.0954168 max: 0.981361
smoothSolver:  Solving for Ux, Initial residual = 0.00192724, Final residual = 9.49767e-06, No Iterations 22
smoothSolver:  Solving for Uy, Initial residual = 0.00271136, Final residual = 8.3955e-06, No Iterations 24
DICPCG:  Solving for p, Initial residual = 0.00315353, Final residual = 0.000156385, No Iterations 245
time step continuity errors : sum local = 4.07016e-09, global = -1.10194e-20, cumulative = 1.43182e-19
DICPCG:  Solving for p, Initial residual = 0.00292085, Final residual = 9.48771e-07, No Iterations 597
time step continuity errors : sum local = 2.24503e-11, global = 1.97778e-20, cumulative = 1.6296e-19
ExecutionTime = 241.21 s  ClockTime = 241 s

Time = 0.2125

Courant Number mean: 0.0958389 max: 0.981456
smoothSolver:  Solving for Ux, Initial residual = 0.00189898, Final residual = 9.36074e-06, No Iterations 22
smoothSolver:  Solving for Uy, Initial residual = 0.00268882, Final residual = 8.32488e-06, No Iterations 24
DICPCG:  Solving for p, Initial residual = 0.00330664, Final residual = 0.000165057, No Iterations 485
time step continuity errors : sum local = 3.90257e-09, global = 2.58841e-20, cumulative = 1.88844e-19
DICPCG:  Solving for p, Initial residual = 0.00307374, Final residual = 9.9246e-07, No Iterations 592
time step continuity errors : sum local = 2.35018e-11, global = 2.81137e-20, cumulative = 2.16958e-19
ExecutionTime = 244.3 s  ClockTime = 244 s

Time = 0.215

Courant Number mean: 0.096257 max: 0.981548
smoothSolver:  Solving for Ux, Initial residual = 0.0018799, Final residual = 9.26956e-06, No Iterations 22
smoothSolver:  Solving for Uy, Initial residual = 0.00264535, Final residual = 8.19119e-06, No Iterations 24
DICPCG:  Solving for p, Initial residual = 0.00314607, Final residual = 0.000154103, No Iterations 251
time step continuity errors : sum local = 4.10049e-09, global = -2.79587e-20, cumulative = 1.88999e-19
DICPCG:  Solving for p, Initial residual = 0.00290047, Final residual = 9.72842e-07, No Iterations 596
time step continuity errors : sum local = 2.30273e-11, global = -8.93958e-21, cumulative = 1.8006e-19
ExecutionTime = 246.78 s  ClockTime = 247 s

Time = 0.2175

Courant Number mean: 0.0966716 max: 0.981639
smoothSolver:  Solving for Ux, Initial residual = 0.00185213, Final residual = 9.13458e-06, No Iterations 22
smoothSolver:  Solving for Uy, Initial residual = 0.00262694, Final residual = 8.13297e-06, No Iterations 24
DICPCG:  Solving for p, Initial residual = 0.00331696, Final residual = 0.000162602, No Iterations 477
time step continuity errors : sum local = 3.8476e-09, global = -3.97211e-21, cumulative = 1.76088e-19
DICPCG:  Solving for p, Initial residual = 0.00306774, Final residual = 9.40402e-07, No Iterations 596
time step continuity errors : sum local = 2.22754e-11, global = -2.72418e-20, cumulative = 1.48846e-19
ExecutionTime = 249.88 s  ClockTime = 250 s

Time = 0.22

Courant Number mean: 0.0970825 max: 0.981728
smoothSolver:  Solving for Ux, Initial residual = 0.00183467, Final residual = 9.05134e-06, No Iterations 22
smoothSolver:  Solving for Uy, Initial residual = 0.00258233, Final residual = 7.9962e-06, No Iterations 24
DICPCG:  Solving for p, Initial residual = 0.00309496, Final residual = 0.000146387, No Iterations 478
time step continuity errors : sum local = 3.46448e-09, global = 3.95393e-21, cumulative = 1.528e-19
DICPCG:  Solving for p, Initial residual = 0.00287392, Final residual = 9.2959e-07, No Iterations 596
time step continuity errors : sum local = 2.20046e-11, global = -3.66894e-21, cumulative = 1.49131e-19
ExecutionTime = 252.97 s  ClockTime = 253 s

Time = 0.2225

Courant Number mean: 0.0974897 max: 0.981816
smoothSolver:  Solving for Ux, Initial residual = 0.00181213, Final residual = 8.94371e-06, No Iterations 22
smoothSolver:  Solving for Uy, Initial residual = 0.00255149, Final residual = 7.90366e-06, No Iterations 24
DICPCG:  Solving for p, Initial residual = 0.00295141, Final residual = 0.000145353, No Iterations 238
time step continuity errors : sum local = 3.44457e-09, global = 2.00112e-20, cumulative = 1.69142e-19
DICPCG:  Solving for p, Initial residual = 0.00273768, Final residual = 9.99092e-07, No Iterations 603
time step continuity errors : sum local = 2.36499e-11, global = -1.46306e-20, cumulative = 1.54511e-19
ExecutionTime = 255.41 s  ClockTime = 255 s

Time = 0.225

Courant Number mean: 0.0978931 max: 0.981902
smoothSolver:  Solving for Ux, Initial residual = 0.0017904, Final residual = 8.83909e-06, No Iterations 22
smoothSolver:  Solving for Uy, Initial residual = 0.00252115, Final residual = 9.93496e-06, No Iterations 23
DICPCG:  Solving for p, Initial residual = 0.00285887, Final residual = 0.000138662, No Iterations 238
time step continuity errors : sum local = 3.49064e-09, global = 1.55487e-20, cumulative = 1.7006e-19
DICPCG:  Solving for p, Initial residual = 0.0027297, Final residual = 9.76649e-07, No Iterations 590
time step continuity errors : sum local = 2.31228e-11, global = 1.87422e-20, cumulative = 1.88802e-19
ExecutionTime = 257.84 s  ClockTime = 258 s

Time = 0.2275

Courant Number mean: 0.0982928 max: 0.981987
smoothSolver:  Solving for Ux, Initial residual = 0.00176721, Final residual = 8.72631e-06, No Iterations 22
smoothSolver:  Solving for Uy, Initial residual = 0.00249903, Final residual = 9.84639e-06, No Iterations 23
DICPCG:  Solving for p, Initial residual = 0.00287806, Final residual = 0.000137839, No Iterations 488
time step continuity errors : sum local = 3.26237e-09, global = 1.00774e-20, cumulative = 1.9888e-19
DICPCG:  Solving for p, Initial residual = 0.00267701, Final residual = 9.77125e-07, No Iterations 585
time step continuity errors : sum local = 2.31271e-11, global = 1.05897e-20, cumulative = 2.09469e-19
ExecutionTime = 260.9 s  ClockTime = 261 s

Time = 0.23

Courant Number mean: 0.0986888 max: 0.98207
smoothSolver:  Solving for Ux, Initial residual = 0.00174929, Final residual = 8.64001e-06, No Iterations 22
smoothSolver:  Solving for Uy, Initial residual = 0.00246475, Final residual = 9.71168e-06, No Iterations 23
DICPCG:  Solving for p, Initial residual = 0.00280528, Final residual = 0.000135846, No Iterations 244
time step continuity errors : sum local = 3.50796e-09, global = -1.15852e-20, cumulative = 1.97884e-19
DICPCG:  Solving for p, Initial residual = 0.00260229, Final residual = 9.94895e-07, No Iterations 597
time step continuity errors : sum local = 2.35654e-11, global = -2.96974e-20, cumulative = 1.68187e-19
ExecutionTime = 263.38 s  ClockTime = 263 s

Time = 0.2325

Courant Number mean: 0.0990816 max: 0.982152
smoothSolver:  Solving for Ux, Initial residual = 0.00172584, Final residual = 8.5259e-06, No Iterations 22
smoothSolver:  Solving for Uy, Initial residual = 0.00244542, Final residual = 9.63455e-06, No Iterations 23
DICPCG:  Solving for p, Initial residual = 0.00295494, Final residual = 0.000147658, No Iterations 484
time step continuity errors : sum local = 3.49499e-09, global = -7.54047e-22, cumulative = 1.67433e-19
DICPCG:  Solving for p, Initial residual = 0.00274284, Final residual = 9.80833e-07, No Iterations 586
time step continuity errors : sum local = 2.32362e-11, global = 2.29704e-20, cumulative = 1.90403e-19
ExecutionTime = 266.44 s  ClockTime = 266 s

Time = 0.235

Courant Number mean: 0.0994713 max: 0.982232
smoothSolver:  Solving for Ux, Initial residual = 0.00170961, Final residual = 8.44788e-06, No Iterations 22
smoothSolver:  Solving for Uy, Initial residual = 0.00241003, Final residual = 9.49597e-06, No Iterations 23
DICPCG:  Solving for p, Initial residual = 0.0028118, Final residual = 0.000136716, No Iterations 248
time step continuity errors : sum local = 3.61256e-09, global = -1.04532e-20, cumulative = 1.7995e-19
DICPCG:  Solving for p, Initial residual = 0.00259974, Final residual = 9.78559e-07, No Iterations 596
time step continuity errors : sum local = 2.31864e-11, global = -1.32068e-20, cumulative = 1.66743e-19
ExecutionTime = 268.9 s  ClockTime = 269 s

Time = 0.2375

Courant Number mean: 0.0998575 max: 0.982312
smoothSolver:  Solving for Ux, Initial residual = 0.00168635, Final residual = 8.33431e-06, No Iterations 22
smoothSolver:  Solving for Uy, Initial residual = 0.00239427, Final residual = 9.43244e-06, No Iterations 23
DICPCG:  Solving for p, Initial residual = 0.00297017, Final residual = 0.000141727, No Iterations 477
time step continuity errors : sum local = 3.35577e-09, global = -1.97637e-20, cumulative = 1.46979e-19
DICPCG:  Solving for p, Initial residual = 0.00274771, Final residual = 9.82194e-07, No Iterations 588
time step continuity errors : sum local = 2.32868e-11, global = -1.37033e-20, cumulative = 1.33276e-19
ExecutionTime = 271.93 s  ClockTime = 272 s

Time = 0.24

Courant Number mean: 0.10024 max: 0.98239
smoothSolver:  Solving for Ux, Initial residual = 0.00167149, Final residual = 8.26307e-06, No Iterations 22
smoothSolver:  Solving for Uy, Initial residual = 0.00235762, Final residual = 9.28945e-06, No Iterations 23
DICPCG:  Solving for p, Initial residual = 0.0027723, Final residual = 0.000134301, No Iterations 478
time step continuity errors : sum local = 3.18111e-09, global = 1.41399e-20, cumulative = 1.47416e-19
DICPCG:  Solving for p, Initial residual = 0.00257648, Final residual = 9.43514e-07, No Iterations 596
time step continuity errors : sum local = 2.23558e-11, global = 1.2008e-20, cumulative = 1.59424e-19
ExecutionTime = 274.98 s  ClockTime = 275 s

Time = 0.2425

Courant Number mean: 0.10062 max: 0.982466
smoothSolver:  Solving for Ux, Initial residual = 0.00165253, Final residual = 8.17212e-06, No Iterations 22
smoothSolver:  Solving for Uy, Initial residual = 0.0023318, Final residual = 9.19059e-06, No Iterations 23
DICPCG:  Solving for p, Initial residual = 0.00267213, Final residual = 0.000122396, No Iterations 239
time step continuity errors : sum local = 2.90099e-09, global = 5.6612e-21, cumulative = 1.65085e-19
DICPCG:  Solving for p, Initial residual = 0.00247772, Final residual = 9.63284e-07, No Iterations 439
time step continuity errors : sum local = 2.3386e-11, global = -1.12704e-20, cumulative = 1.53815e-19
ExecutionTime = 277.02 s  ClockTime = 277 s

Time = 0.245

Courant Number mean: 0.100996 max: 0.982542
smoothSolver:  Solving for Ux, Initial residual = 0.00163392, Final residual = 8.08212e-06, No Iterations 22
smoothSolver:  Solving for Uy, Initial residual = 0.00230682, Final residual = 9.09302e-06, No Iterations 23
DICPCG:  Solving for p, Initial residual = 0.0026034, Final residual = 0.000122407, No Iterations 238
time step continuity errors : sum local = 2.97883e-09, global = 6.07831e-21, cumulative = 1.59893e-19
DICPCG:  Solving for p, Initial residual = 0.00246823, Final residual = 9.85549e-07, No Iterations 586
time step continuity errors : sum local = 2.33568e-11, global = -1.07704e-20, cumulative = 1.49123e-19
ExecutionTime = 279.43 s  ClockTime = 279 s

Time = 0.2475

Courant Number mean: 0.10137 max: 0.982617
smoothSolver:  Solving for Ux, Initial residual = 0.00161543, Final residual = 7.99219e-06, No Iterations 22
smoothSolver:  Solving for Uy, Initial residual = 0.00228474, Final residual = 9.00578e-06, No Iterations 23
DICPCG:  Solving for p, Initial residual = 0.00257234, Final residual = 0.000124795, No Iterations 488
time step continuity errors : sum local = 2.95789e-09, global = -3.57766e-21, cumulative = 1.45545e-19
DICPCG:  Solving for p, Initial residual = 0.00239206, Final residual = 9.61628e-07, No Iterations 585
time step continuity errors : sum local = 2.27975e-11, global = 2.41632e-20, cumulative = 1.69708e-19
ExecutionTime = 282.5 s  ClockTime = 282 s

Time = 0.25

Courant Number mean: 0.10174 max: 0.98269
smoothSolver:  Solving for Ux, Initial residual = 0.00159915, Final residual = 7.91336e-06, No Iterations 22
smoothSolver:  Solving for Uy, Initial residual = 0.00225882, Final residual = 8.90355e-06, No Iterations 23
DICPCG:  Solving for p, Initial residual = 0.00256558, Final residual = 0.000126886, No Iterations 241
time step continuity errors : sum local = 3.1629e-09, global = -1.85664e-20, cumulative = 1.51142e-19
DICPCG:  Solving for p, Initial residual = 0.00238868, Final residual = 9.80368e-07, No Iterations 611
time step continuity errors : sum local = 2.32158e-11, global = 2.11148e-20, cumulative = 1.72257e-19
ExecutionTime = 284.98 s  ClockTime = 285 s

Time = 0.2525

Courant Number mean: 0.102108 max: 0.982762
smoothSolver:  Solving for Ux, Initial residual = 0.00158006, Final residual = 9.95298e-06, No Iterations 21
smoothSolver:  Solving for Uy, Initial residual = 0.00223986, Final residual = 8.82839e-06, No Iterations 23
DICPCG:  Solving for p, Initial residual = 0.00267786, Final residual = 0.000130814, No Iterations 488
time step continuity errors : sum local = 3.10023e-09, global = -1.59428e-20, cumulative = 1.56314e-19
DICPCG:  Solving for p, Initial residual = 0.00248098, Final residual = 9.09625e-07, No Iterations 584
time step continuity errors : sum local = 2.15561e-11, global = -1.29266e-20, cumulative = 1.43387e-19
ExecutionTime = 288.05 s  ClockTime = 288 s

Time = 0.255

Courant Number mean: 0.102472 max: 0.982833
smoothSolver:  Solving for Ux, Initial residual = 0.00156537, Final residual = 9.86256e-06, No Iterations 21
smoothSolver:  Solving for Uy, Initial residual = 0.00221274, Final residual = 8.72157e-06, No Iterations 23
DICPCG:  Solving for p, Initial residual = 0.00259729, Final residual = 0.00012799, No Iterations 242
time step continuity errors : sum local = 3.24751e-09, global = 2.31393e-20, cumulative = 1.66527e-19
DICPCG:  Solving for p, Initial residual = 0.00240145, Final residual = 9.81477e-07, No Iterations 596
time step continuity errors : sum local = 2.32703e-11, global = 5.36056e-22, cumulative = 1.67063e-19
ExecutionTime = 290.5 s  ClockTime = 290 s

Time = 0.2575

Courant Number mean: 0.102833 max: 0.982903
smoothSolver:  Solving for Ux, Initial residual = 0.0015464, Final residual = 9.7445e-06, No Iterations 21
smoothSolver:  Solving for Uy, Initial residual = 0.00219624, Final residual = 8.65587e-06, No Iterations 23
DICPCG:  Solving for p, Initial residual = 0.00268876, Final residual = 0.000132684, No Iterations 488
time step continuity errors : sum local = 3.14435e-09, global = 1.61987e-20, cumulative = 1.83261e-19
DICPCG:  Solving for p, Initial residual = 0.00248821, Final residual = 9.04615e-07, No Iterations 584
time step continuity errors : sum local = 2.14397e-11, global = 1.42721e-20, cumulative = 1.97533e-19
ExecutionTime = 293.61 s  ClockTime = 293 s

Time = 0.26

Courant Number mean: 0.103191 max: 0.982972
smoothSolver:  Solving for Ux, Initial residual = 0.00153286, Final residual = 9.66111e-06, No Iterations 21
smoothSolver:  Solving for Uy, Initial residual = 0.00216847, Final residual = 8.547e-06, No Iterations 23
DICPCG:  Solving for p, Initial residual = 0.00257738, Final residual = 0.000122963, No Iterations 244
time step continuity errors : sum local = 3.18865e-09, global = 2.6626e-20, cumulative = 2.24159e-19
DICPCG:  Solving for p, Initial residual = 0.00238824, Final residual = 9.73129e-07, No Iterations 596
time step continuity errors : sum local = 2.30778e-11, global = -2.2243e-20, cumulative = 2.01916e-19
ExecutionTime = 296.12 s  ClockTime = 296 s

Time = 0.2625

Courant Number mean: 0.103547 max: 0.98304
smoothSolver:  Solving for Ux, Initial residual = 0.00151404, Final residual = 9.54383e-06, No Iterations 21
smoothSolver:  Solving for Uy, Initial residual = 0.00215451, Final residual = 8.49093e-06, No Iterations 23
DICPCG:  Solving for p, Initial residual = 0.00267404, Final residual = 0.000132627, No Iterations 487
time step continuity errors : sum local = 3.14308e-09, global = -6.57793e-22, cumulative = 2.01259e-19
DICPCG:  Solving for p, Initial residual = 0.0024794, Final residual = 9.3416e-07, No Iterations 585
time step continuity errors : sum local = 2.2164e-11, global = -6.07739e-21, cumulative = 1.95181e-19
ExecutionTime = 299.19 s  ClockTime = 299 s

Time = 0.265

Courant Number mean: 0.103899 max: 0.983107
smoothSolver:  Solving for Ux, Initial residual = 0.00150154, Final residual = 9.467e-06, No Iterations 21
smoothSolver:  Solving for Uy, Initial residual = 0.00212594, Final residual = 8.37925e-06, No Iterations 23
DICPCG:  Solving for p, Initial residual = 0.0025575, Final residual = 0.00012776, No Iterations 246
time step continuity errors : sum local = 3.363e-09, global = 4.81846e-20, cumulative = 2.43366e-19
DICPCG:  Solving for p, Initial residual = 0.00236866, Final residual = 9.49732e-07, No Iterations 596
time step continuity errors : sum local = 2.25285e-11, global = -1.59238e-20, cumulative = 2.27442e-19
ExecutionTime = 301.66 s  ClockTime = 301 s

Time = 0.2675

Courant Number mean: 0.104249 max: 0.983173
smoothSolver:  Solving for Ux, Initial residual = 0.0014829, Final residual = 9.35048e-06, No Iterations 21
smoothSolver:  Solving for Uy, Initial residual = 0.00211439, Final residual = 8.33236e-06, No Iterations 23
DICPCG:  Solving for p, Initial residual = 0.00269789, Final residual = 0.000133987, No Iterations 481
time step continuity errors : sum local = 3.1768e-09, global = 9.79523e-21, cumulative = 2.37237e-19
DICPCG:  Solving for p, Initial residual = 0.00250346, Final residual = 9.57729e-07, No Iterations 586
time step continuity errors : sum local = 2.27432e-11, global = -1.27754e-20, cumulative = 2.24462e-19
ExecutionTime = 304.71 s  ClockTime = 305 s

Time = 0.27

Courant Number mean: 0.104597 max: 0.983238
smoothSolver:  Solving for Ux, Initial residual = 0.00147138, Final residual = 9.27966e-06, No Iterations 21
smoothSolver:  Solving for Uy, Initial residual = 0.002085, Final residual = 8.21772e-06, No Iterations 23
DICPCG:  Solving for p, Initial residual = 0.00254017, Final residual = 0.000126022, No Iterations 477
time step continuity errors : sum local = 2.98932e-09, global = -7.5904e-21, cumulative = 2.16871e-19
DICPCG:  Solving for p, Initial residual = 0.00236079, Final residual = 9.56597e-07, No Iterations 596
[...]
ExecutionTime = 1016.15 s  ClockTime = 1016 s

Time = 0.935

Courant Number mean: 0.153878 max: 0.989409
smoothSolver:  Solving for Ux, Initial residual = 0.000326187, Final residual = 8.75973e-06, No Iterations 15
smoothSolver:  Solving for Uy, Initial residual = 0.000533561, Final residual = 8.89088e-06, No Iterations 17
DICPCG:  Solving for p, Initial residual = 0.000941987, Final residual = 4.5902e-05, No Iterations 468
time step continuity errors : sum local = 1.11275e-09, global = -2.67432e-20, cumulative = -1.49109e-19
DICPCG:  Solving for p, Initial residual = 0.000888973, Final residual = 9.45247e-07, No Iterations 566
time step continuity errors : sum local = 2.28602e-11, global = -1.66901e-20, cumulative = -1.65799e-19
ExecutionTime = 1019.07 s  ClockTime = 1019 s

Time = 0.9375

Courant Number mean: 0.153983 max: 0.989417
smoothSolver:  Solving for Ux, Initial residual = 0.000325333, Final residual = 8.73653e-06, No Iterations 15
smoothSolver:  Solving for Uy, Initial residual = 0.000531225, Final residual = 8.85171e-06, No Iterations 17
DICPCG:  Solving for p, Initial residual = 0.000925918, Final residual = 4.4317e-05, No Iterations 235
time step continuity errors : sum local = 1.07564e-09, global = -6.32338e-20, cumulative = -2.29033e-19
DICPCG:  Solving for p, Initial residual = 0.000872403, Final residual = 9.38426e-07, No Iterations 566
time step continuity errors : sum local = 2.27097e-11, global = -8.85215e-21, cumulative = -2.37885e-19
ExecutionTime = 1021.38 s  ClockTime = 1021 s

Time = 0.94

Courant Number mean: 0.154088 max: 0.989425
smoothSolver:  Solving for Ux, Initial residual = 0.000324264, Final residual = 8.70734e-06, No Iterations 15
smoothSolver:  Solving for Uy, Initial residual = 0.000529444, Final residual = 8.82247e-06, No Iterations 17
DICPCG:  Solving for p, Initial residual = 0.000925961, Final residual = 4.39828e-05, No Iterations 235
time step continuity errors : sum local = 1.07028e-09, global = -2.56638e-20, cumulative = -2.63549e-19
DICPCG:  Solving for p, Initial residual = 0.000889929, Final residual = 9.80195e-07, No Iterations 405
time step continuity errors : sum local = 2.40827e-11, global = 2.17149e-20, cumulative = -2.41834e-19
ExecutionTime = 1023.27 s  ClockTime = 1023 s

Time = 0.9425

Courant Number mean: 0.154192 max: 0.989433
smoothSolver:  Solving for Ux, Initial residual = 0.000323115, Final residual = 8.67649e-06, No Iterations 15
smoothSolver:  Solving for Uy, Initial residual = 0.000527638, Final residual = 8.79209e-06, No Iterations 17
DICPCG:  Solving for p, Initial residual = 0.000887463, Final residual = 4.33088e-05, No Iterations 236
time step continuity errors : sum local = 1.06087e-09, global = -5.14931e-20, cumulative = -2.93327e-19
DICPCG:  Solving for p, Initial residual = 0.000850369, Final residual = 9.87301e-07, No Iterations 565
time step continuity errors : sum local = 2.38749e-11, global = -1.02745e-20, cumulative = -3.03601e-19
ExecutionTime = 1025.57 s  ClockTime = 1025 s

Time = 0.945

Courant Number mean: 0.154297 max: 0.989442
smoothSolver:  Solving for Ux, Initial residual = 0.000321892, Final residual = 8.6432e-06, No Iterations 15
smoothSolver:  Solving for Uy, Initial residual = 0.000526245, Final residual = 8.76844e-06, No Iterations 17
DICPCG:  Solving for p, Initial residual = 0.000898197, Final residual = 4.29924e-05, No Iterations 467
time step continuity errors : sum local = 1.04216e-09, global = 3.39641e-20, cumulative = -2.69637e-19
DICPCG:  Solving for p, Initial residual = 0.000849338, Final residual = 9.37289e-07, No Iterations 566
time step continuity errors : sum local = 2.2669e-11, global = 2.6756e-20, cumulative = -2.42881e-19
ExecutionTime = 1028.53 s  ClockTime = 1028 s

Time = 0.9475

Courant Number mean: 0.1544 max: 0.98945
smoothSolver:  Solving for Ux, Initial residual = 0.000320899, Final residual = 8.61645e-06, No Iterations 15
smoothSolver:  Solving for Uy, Initial residual = 0.000524174, Final residual = 8.73362e-06, No Iterations 17
DICPCG:  Solving for p, Initial residual = 0.000910467, Final residual = 4.50898e-05, No Iterations 238
time step continuity errors : sum local = 1.09987e-09, global = 5.35446e-20, cumulative = -1.89337e-19
DICPCG:  Solving for p, Initial residual = 0.000862378, Final residual = 9.76784e-07, No Iterations 407
time step continuity errors : sum local = 2.47432e-11, global = 1.49694e-20, cumulative = -1.74367e-19
ExecutionTime = 1030.43 s  ClockTime = 1030 s

Time = 0.95

Courant Number mean: 0.154504 max: 0.989458
smoothSolver:  Solving for Ux, Initial residual = 0.00031995, Final residual = 8.5902e-06, No Iterations 15
smoothSolver:  Solving for Uy, Initial residual = 0.000522379, Final residual = 8.70379e-06, No Iterations 17
DICPCG:  Solving for p, Initial residual = 0.000907928, Final residual = 4.53769e-05, No Iterations 235
time step continuity errors : sum local = 1.12709e-09, global = 2.63506e-20, cumulative = -1.48017e-19
DICPCG:  Solving for p, Initial residual = 0.000857753, Final residual = 9.63983e-07, No Iterations 566
time step continuity errors : sum local = 2.33211e-11, global = -1.87795e-20, cumulative = -1.66796e-19
ExecutionTime = 1032.74 s  ClockTime = 1032 s

Time = 0.9525

Courant Number mean: 0.154607 max: 0.989466
smoothSolver:  Solving for Ux, Initial residual = 0.000318487, Final residual = 8.55082e-06, No Iterations 15
smoothSolver:  Solving for Uy, Initial residual = 0.000521331, Final residual = 8.68549e-06, No Iterations 17
DICPCG:  Solving for p, Initial residual = 0.000927102, Final residual = 4.52123e-05, No Iterations 468
time step continuity errors : sum local = 1.0964e-09, global = 5.73378e-21, cumulative = -1.61062e-19
DICPCG:  Solving for p, Initial residual = 0.000874483, Final residual = 9.6089e-07, No Iterations 565
time step continuity errors : sum local = 2.32502e-11, global = 1.39688e-20, cumulative = -1.47094e-19
ExecutionTime = 1035.7 s  ClockTime = 1035 s

Time = 0.955

Courant Number mean: 0.15471 max: 0.989474
smoothSolver:  Solving for Ux, Initial residual = 0.000317689, Final residual = 8.52918e-06, No Iterations 15
smoothSolver:  Solving for Uy, Initial residual = 0.000519017, Final residual = 8.64673e-06, No Iterations 17
DICPCG:  Solving for p, Initial residual = 0.000907802, Final residual = 4.38759e-05, No Iterations 235
time step continuity errors : sum local = 1.06316e-09, global = 9.24529e-21, cumulative = -1.37848e-19
DICPCG:  Solving for p, Initial residual = 0.000855148, Final residual = 9.8956e-07, No Iterations 565
time step continuity errors : sum local = 2.39532e-11, global = 9.72619e-21, cumulative = -1.28122e-19
ExecutionTime = 1037.99 s  ClockTime = 1038 s

Time = 0.9575

Courant Number mean: 0.154813 max: 0.989482
smoothSolver:  Solving for Ux, Initial residual = 0.000316644, Final residual = 8.50068e-06, No Iterations 15
smoothSolver:  Solving for Uy, Initial residual = 0.000517328, Final residual = 8.61906e-06, No Iterations 17
DICPCG:  Solving for p, Initial residual = 0.000909535, Final residual = 4.34987e-05, No Iterations 235
time step continuity errors : sum local = 1.0753e-09, global = 1.34815e-20, cumulative = -1.14641e-19
DICPCG:  Solving for p, Initial residual = 0.000874224, Final residual = 9.9662e-07, No Iterations 565
time step continuity errors : sum local = 2.41167e-11, global = -7.79618e-21, cumulative = -1.22437e-19
ExecutionTime = 1040.27 s  ClockTime = 1040 s

Time = 0.96

Courant Number mean: 0.154915 max: 0.989489
smoothSolver:  Solving for Ux, Initial residual = 0.00031573, Final residual = 8.4757e-06, No Iterations 15
smoothSolver:  Solving for Uy, Initial residual = 0.000515353, Final residual = 8.58554e-06, No Iterations 17
DICPCG:  Solving for p, Initial residual = 0.000879067, Final residual = 4.18921e-05, No Iterations 468
time step continuity errors : sum local = 1.01445e-09, global = 6.93158e-21, cumulative = -1.15505e-19
DICPCG:  Solving for p, Initial residual = 0.000833198, Final residual = 9.76108e-07, No Iterations 565
time step continuity errors : sum local = 2.36159e-11, global = -3.44818e-20, cumulative = -1.49987e-19
ExecutionTime = 1043.29 s  ClockTime = 1043 s

Time = 0.9625

Courant Number mean: 0.155017 max: 0.989497
smoothSolver:  Solving for Ux, Initial residual = 0.000314465, Final residual = 8.4419e-06, No Iterations 15
smoothSolver:  Solving for Uy, Initial residual = 0.000513947, Final residual = 8.56202e-06, No Iterations 17
DICPCG:  Solving for p, Initial residual = 0.000900617, Final residual = 4.45519e-05, No Iterations 239
time step continuity errors : sum local = 1.13698e-09, global = 2.18435e-20, cumulative = -1.28143e-19
DICPCG:  Solving for p, Initial residual = 0.000853555, Final residual = 9.42519e-07, No Iterations 566
time step continuity errors : sum local = 2.28038e-11, global = 5.39447e-21, cumulative = -1.22749e-19
ExecutionTime = 1045.66 s  ClockTime = 1045 s

Time = 0.965

Courant Number mean: 0.155119 max: 0.989505
smoothSolver:  Solving for Ux, Initial residual = 0.000314099, Final residual = 8.42998e-06, No Iterations 15
smoothSolver:  Solving for Uy, Initial residual = 0.000511538, Final residual = 8.52083e-06, No Iterations 17
DICPCG:  Solving for p, Initial residual = 0.000918212, Final residual = 4.55979e-05, No Iterations 469
time step continuity errors : sum local = 1.10431e-09, global = -2.58285e-20, cumulative = -1.48577e-19
DICPCG:  Solving for p, Initial residual = 0.000866873, Final residual = 9.6716e-07, No Iterations 568
time step continuity errors : sum local = 2.34173e-11, global = -4.25159e-20, cumulative = -1.91093e-19
ExecutionTime = 1048.59 s  ClockTime = 1048 s

Time = 0.9675

Courant Number mean: 0.15522 max: 0.989513
smoothSolver:  Solving for Ux, Initial residual = 0.000312373, Final residual = 8.38459e-06, No Iterations 15
smoothSolver:  Solving for Uy, Initial residual = 0.000510657, Final residual = 8.50642e-06, No Iterations 17
DICPCG:  Solving for p, Initial residual = 0.000913774, Final residual = 4.41089e-05, No Iterations 241
time step continuity errors : sum local = 1.15093e-09, global = 8.32835e-21, cumulative = -1.82765e-19
DICPCG:  Solving for p, Initial residual = 0.000862653, Final residual = 9.66286e-07, No Iterations 566
time step continuity errors : sum local = 2.3387e-11, global = 3.55782e-20, cumulative = -1.47187e-19
ExecutionTime = 1050.92 s  ClockTime = 1051 s

Time = 0.97

Courant Number mean: 0.155321 max: 0.989521
smoothSolver:  Solving for Ux, Initial residual = 0.000312315, Final residual = 8.38064e-06, No Iterations 15
smoothSolver:  Solving for Uy, Initial residual = 0.000507897, Final residual = 8.45914e-06, No Iterations 17
DICPCG:  Solving for p, Initial residual = 0.000928983, Final residual = 4.59577e-05, No Iterations 470
time step continuity errors : sum local = 1.113e-09, global = -1.64759e-20, cumulative = -1.63663e-19
DICPCG:  Solving for p, Initial residual = 0.000876101, Final residual = 9.87273e-07, No Iterations 568
time step continuity errors : sum local = 2.39106e-11, global = -4.94481e-20, cumulative = -2.13111e-19
ExecutionTime = 1053.85 s  ClockTime = 1054 s

Time = 0.9725

Courant Number mean: 0.155422 max: 0.989528
smoothSolver:  Solving for Ux, Initial residual = 0.000310315, Final residual = 8.32831e-06, No Iterations 15
smoothSolver:  Solving for Uy, Initial residual = 0.000507378, Final residual = 8.45103e-06, No Iterations 17
DICPCG:  Solving for p, Initial residual = 0.000922227, Final residual = 4.53622e-05, No Iterations 246
time step continuity errors : sum local = 1.2023e-09, global = -1.86816e-20, cumulative = -2.31792e-19
DICPCG:  Solving for p, Initial residual = 0.000868478, Final residual = 9.93033e-07, No Iterations 566
time step continuity errors : sum local = 2.40389e-11, global = 2.29404e-20, cumulative = -2.08852e-19
ExecutionTime = 1056.2 s  ClockTime = 1056 s

Time = 0.975

Courant Number mean: 0.155522 max: 0.989536
smoothSolver:  Solving for Ux, Initial residual = 0.000310536, Final residual = 8.33154e-06, No Iterations 15
smoothSolver:  Solving for Uy, Initial residual = 0.000504316, Final residual = 8.39857e-06, No Iterations 17
DICPCG:  Solving for p, Initial residual = 0.000936492, Final residual = 4.46012e-05, No Iterations 471
time step continuity errors : sum local = 1.08012e-09, global = -4.92086e-20, cumulative = -2.58061e-19
DICPCG:  Solving for p, Initial residual = 0.000882271, Final residual = 9.7851e-07, No Iterations 568
time step continuity errors : sum local = 2.37026e-11, global = 1.77461e-20, cumulative = -2.40314e-19
ExecutionTime = 1059.16 s  ClockTime = 1059 s

Time = 0.9775

Courant Number mean: 0.155622 max: 0.989544
smoothSolver:  Solving for Ux, Initial residual = 0.000308284, Final residual = 8.27281e-06, No Iterations 15
smoothSolver:  Solving for Uy, Initial residual = 0.000504122, Final residual = 8.39603e-06, No Iterations 17
DICPCG:  Solving for p, Initial residual = 0.000921888, Final residual = 4.51001e-05, No Iterations 477
time step continuity errors : sum local = 1.09441e-09, global = 3.77407e-22, cumulative = -2.39937e-19
DICPCG:  Solving for p, Initial residual = 0.00086723, Final residual = 9.84068e-07, No Iterations 566
time step continuity errors : sum local = 2.38257e-11, global = -2.11521e-20, cumulative = -2.61089e-19
ExecutionTime = 1062.07 s  ClockTime = 1062 s

Time = 0.98

Courant Number mean: 0.155722 max: 0.989551
smoothSolver:  Solving for Ux, Initial residual = 0.000307307, Final residual = 8.2477e-06, No Iterations 15
smoothSolver:  Solving for Uy, Initial residual = 0.000502258, Final residual = 8.36577e-06, No Iterations 17
DICPCG:  Solving for p, Initial residual = 0.000884458, Final residual = 4.35553e-05, No Iterations 238
time step continuity errors : sum local = 1.06869e-09, global = -4.7241e-21, cumulative = -2.65813e-19
DICPCG:  Solving for p, Initial residual = 0.000835393, Final residual = 9.83687e-07, No Iterations 566
time step continuity errors : sum local = 2.38214e-11, global = 1.90904e-20, cumulative = -2.46723e-19
ExecutionTime = 1064.37 s  ClockTime = 1064 s

Time = 0.9825

Courant Number mean: 0.155821 max: 0.989559
smoothSolver:  Solving for Ux, Initial residual = 0.000306462, Final residual = 8.22418e-06, No Iterations 15
smoothSolver:  Solving for Uy, Initial residual = 0.000500508, Final residual = 8.3365e-06, No Iterations 17
DICPCG:  Solving for p, Initial residual = 0.000875557, Final residual = 4.37427e-05, No Iterations 238
time step continuity errors : sum local = 1.13185e-09, global = -1.61234e-20, cumulative = -2.62846e-19
DICPCG:  Solving for p, Initial residual = 0.000842358, Final residual = 9.7772e-07, No Iterations 565
time step continuity errors : sum local = 2.36677e-11, global = -4.37344e-20, cumulative = -3.06581e-19
ExecutionTime = 1066.68 s  ClockTime = 1066 s

Time = 0.985

Courant Number mean: 0.15592 max: 0.989566
smoothSolver:  Solving for Ux, Initial residual = 0.000304824, Final residual = 8.17981e-06, No Iterations 15
smoothSolver:  Solving for Uy, Initial residual = 0.000500367, Final residual = 8.33227e-06, No Iterations 17
DICPCG:  Solving for p, Initial residual = 0.000904433, Final residual = 4.40841e-05, No Iterations 408
time step continuity errors : sum local = 1.06954e-09, global = 3.82601e-20, cumulative = -2.68321e-19
DICPCG:  Solving for p, Initial residual = 0.000855527, Final residual = 9.94989e-07, No Iterations 566
time step continuity errors : sum local = 2.41008e-11, global = 4.99412e-21, cumulative = -2.63326e-19
ExecutionTime = 1069.43 s  ClockTime = 1069 s

Time = 0.9875

Courant Number mean: 0.156019 max: 0.989574
smoothSolver:  Solving for Ux, Initial residual = 0.000304339, Final residual = 8.16643e-06, No Iterations 15
smoothSolver:  Solving for Uy, Initial residual = 0.00049738, Final residual = 8.28289e-06, No Iterations 17
DICPCG:  Solving for p, Initial residual = 0.000882837, Final residual = 4.35733e-05, No Iterations 243
time step continuity errors : sum local = 1.12526e-09, global = 4.39184e-20, cumulative = -2.19408e-19
DICPCG:  Solving for p, Initial residual = 0.000832029, Final residual = 9.541e-07, No Iterations 569
time step continuity errors : sum local = 2.31183e-11, global = 3.894e-22, cumulative = -2.19019e-19
ExecutionTime = 1071.76 s  ClockTime = 1072 s

Time = 0.99

Courant Number mean: 0.156118 max: 0.989581
smoothSolver:  Solving for Ux, Initial residual = 0.000302935, Final residual = 8.12834e-06, No Iterations 15
smoothSolver:  Solving for Uy, Initial residual = 0.000497088, Final residual = 8.27714e-06, No Iterations 17
DICPCG:  Solving for p, Initial residual = 0.000916557, Final residual = 4.3113e-05, No Iterations 409
time step continuity errors : sum local = 1.04474e-09, global = 3.60119e-21, cumulative = -2.15417e-19
DICPCG:  Solving for p, Initial residual = 0.000862288, Final residual = 9.68053e-07, No Iterations 566
time step continuity errors : sum local = 2.34523e-11, global = 7.02603e-21, cumulative = -2.08391e-19
ExecutionTime = 1074.5 s  ClockTime = 1074 s

Time = 0.9925

Courant Number mean: 0.156216 max: 0.989588
smoothSolver:  Solving for Ux, Initial residual = 0.000302492, Final residual = 8.11617e-06, No Iterations 15
smoothSolver:  Solving for Uy, Initial residual = 0.000494345, Final residual = 8.23199e-06, No Iterations 17
DICPCG:  Solving for p, Initial residual = 0.000880758, Final residual = 4.25813e-05, No Iterations 241
time step continuity errors : sum local = 1.0801e-09, global = -3.65504e-21, cumulative = -2.12046e-19
DICPCG:  Solving for p, Initial residual = 0.000830541, Final residual = 9.96346e-07, No Iterations 567
time step continuity errors : sum local = 2.41434e-11, global = 9.80536e-21, cumulative = -2.02241e-19
ExecutionTime = 1076.84 s  ClockTime = 1077 s

Time = 0.995

Courant Number mean: 0.156314 max: 0.989596
smoothSolver:  Solving for Ux, Initial residual = 0.000300995, Final residual = 8.07619e-06, No Iterations 15
smoothSolver:  Solving for Uy, Initial residual = 0.000493467, Final residual = 8.21693e-06, No Iterations 17
DICPCG:  Solving for p, Initial residual = 0.000900097, Final residual = 4.36992e-05, No Iterations 469
time step continuity errors : sum local = 1.06102e-09, global = 3.91742e-20, cumulative = -1.63067e-19
DICPCG:  Solving for p, Initial residual = 0.0008492, Final residual = 9.92641e-07, No Iterations 565
time step continuity errors : sum local = 2.405e-11, global = 2.80924e-20, cumulative = -1.34974e-19
ExecutionTime = 1079.73 s  ClockTime = 1079 s

Time = 0.9975

Courant Number mean: 0.156412 max: 0.989603
smoothSolver:  Solving for Ux, Initial residual = 0.000300458, Final residual = 8.06147e-06, No Iterations 15
smoothSolver:  Solving for Uy, Initial residual = 0.000491071, Final residual = 8.17712e-06, No Iterations 17
DICPCG:  Solving for p, Initial residual = 0.000872118, Final residual = 4.20659e-05, No Iterations 235
time step continuity errors : sum local = 1.03256e-09, global = 1.78051e-20, cumulative = -1.17169e-19
DICPCG:  Solving for p, Initial residual = 0.000822189, Final residual = 9.75905e-07, No Iterations 564
time step continuity errors : sum local = 2.36509e-11, global = 5.99272e-21, cumulative = -1.11177e-19
ExecutionTime = 1082.01 s  ClockTime = 1082 s

Time = 1

Courant Number mean: 0.156509 max: 0.98961
smoothSolver:  Solving for Ux, Initial residual = 0.000299332, Final residual = 8.03101e-06, No Iterations 15
smoothSolver:  Solving for Uy, Initial residual = 0.000489764, Final residual = 8.15578e-06, No Iterations 17
DICPCG:  Solving for p, Initial residual = 0.000875126, Final residual = 4.0819e-05, No Iterations 466
time step continuity errors : sum local = 9.90521e-10, global = -3.94499e-20, cumulative = -1.50627e-19
DICPCG:  Solving for p, Initial residual = 0.000825729, Final residual = 9.63511e-07, No Iterations 565
time step continuity errors : sum local = 2.33334e-11, global = -1.45786e-20, cumulative = -1.65205e-19
ExecutionTime = 1085.18 s  ClockTime = 1085 s

End

