/*---------------------------------------------------------------------------*\
  =========                 |
  \\      /  F ield         | OpenFOAM: The Open Source CFD Toolbox
   \\    /   O peration     | Website:  https://openfoam.org
    \\  /    A nd           | Version:  8
     \\/     M anipulation  |
\*---------------------------------------------------------------------------*/
Build  : 8-9b73cf21a682
Exec   : blockMesh
Date   : Oct 05 2020
Time   : 01:36:48
Host   : "bnes"
PID    : 22998
I/O    : uncollated
Case   : /media/sbkim/2266B8F966B8CEB3/git/openfoam_seo/of/org/yjn2/yjn2_rib_upper
nProcs : 1
sigFpe : Enabling floating point exception trapping (FOAM_SIGFPE).
fileModificationChecking : Monitoring run-time modified files using timeStampMaster (fileModificationSkew 10)
allowSystemOperations : Allowing user-supplied system call operations

// * * * * * * * * * * * * * * * * * * * * * * * * * * * * * * * * * * * * * //
Create time

Deleting polyMesh directory
    "/media/sbkim/2266B8F966B8CEB3/git/openfoam_seo/of/org/yjn2/yjn2_rib_upper/constant/polyMesh"
Creating block mesh from
    "system/blockMeshDict"
Creating block edges
No non-planar block faces defined
Creating topology blocks
Creating topology patches

Creating block mesh topology
--> FOAM Warning : 
    From function Foam::polyMesh::polyMesh(const Foam::IOobject&, Foam::pointField&&, const cellShapeList&, const faceListList&, const wordList&, const Foam::PtrList<Foam::dictionary>&, const Foam::word&, const Foam::word&, bool)
    in file meshes/polyMesh/polyMeshFromShapeMesh.C at line 873
    Found 2657 undefined faces in mesh; adding to default patch.

Check topology

	Basic statistics
		Number of internal faces : 29325
		Number of boundary faces : 33852
		Number of defined boundary faces : 33852
		Number of undefined boundary faces : 0
	Checking patch -> block consistency

Creating block offsets
Creating merge list ..

Creating polyMesh from blockMesh
Creating patches
Creating cells
Creating points with scale 1
    Block 0 cell size :
        i : 1
        j : 2.62488e-05 2.62488e-05 2.54951e-05 2.54951e-05 
        k : 0.000570359 0.000570359 0.000573331 0.000573331 
    Block 1 cell size :
        i : 1
        j : 2.54951e-05 2.54951e-05 2.61725e-05 2.61725e-05 
        k : 0.000570496 0.000570496 0.00057234 0.00057234 
    Block 2 cell size :
        i : 1
        j : 2.61725e-05 2.61725e-05 2.60768e-05 2.60768e-05 
        k : 0.000571349 0.000571349 0.00057234 0.00057234 
    Block 3 cell size :
        i : 1
        j : 2.60768e-05 2.60768e-05 2.7e-05 2.7e-05 
        k : 0.000570496 0.000570496 0.00057234 0.00057234 
    Block 4 cell size :
        i : 1
        j : 2.7e-05 2.7e-05 2.80179e-05 2.80179e-05 
        k : 0.000571487 0.000571487 0.00057234 0.00057234 
    Block 5 cell size :
        i : 1
        j : 2.69258e-05 2.69258e-05 2.62488e-05 2.62488e-05 
        k : 0.000570496 0.000570496 0.000572477 0.000572477 
    Block 6 cell size :
        i : 1
        j : 0.00057234
        k : 2.74591e-05
    Block 7 cell size :
        i : 1
        j : 0.000571214 0.000571214 0.00057234 0.00057234 
        k : 2.66833e-05 2.66833e-05 2.74591e-05 2.74591e-05 
    Block 8 cell size :
        i : 1
        j : 0.000572205 0.000572205 0.00057234 0.00057234 
        k : 2.74591e-05 2.74591e-05 2.84429e-05 2.84429e-05 
    Block 9 cell size :
        i : 1
        j : 0.000607425 0.000607425 0.000606704 0.000606704 
        k : 2.84429e-05 2.84429e-05 3.05941e-05 3.05941e-05 
    Block 10 cell size :
        i : 1
        j : 2.80179e-05 2.80179e-05 3.01496e-05 3.01496e-05 
        k : 0.000571626 0.000571626 0.000573331 0.000573331 
    Block 11 cell size :
        i : 1
        j : 3.16228e-05 3.16228e-05 3.15753e-05 3.15753e-05 
        k : 0.000566535 0.000566535 0.000570359 0.000570359 
    Block 12 cell size :
        i : 1
        j : 3.15753e-05 3.15753e-05 3.1257e-05 3.1257e-05 
        k : 0.000568516 0.000568516 0.000570496 0.000570496 
    Block 13 cell size :
        i : 1
        j : 3.1257e-05 3.1257e-05 3.20156e-05 3.20156e-05 
        k : 0.000568516 0.000568516 0.000571349 0.000571349 
    Block 14 cell size :
        i : 1
        j : 3.20156e-05 3.20156e-05 3.3e-05 3.3e-05 
        k : 0.000569646 0.000569646 0.000570496 0.000570496 
    Block 15 cell size :
        i : 1
        j : 3.3e-05 3.3e-05 3.40147e-05 3.40147e-05 
        k : 0.000570636 0.000570636 0.000571487 0.000571487 
    Block 16 cell size :
        i : 1
        j : 2.91548e-05 2.91548e-05 2.69258e-05 2.69258e-05 
        k : 0.00057234 0.00057234 0.000577294 0.000577294 
    Block 17 cell size :
        i : 1
        j : 3.26956e-05 3.26956e-05 3.16228e-05 3.16228e-05 
        k : 0.000567525 0.000567525 0.000570496 0.000570496 
    Block 18 cell size :
        i : 1
        j : 0.00057234
        k : 2.66833e-05
    Block 19 cell size :
        i : 1
        j : 0.000572205 0.000572205 0.00057234 0.00057234 
        k : 3.27567e-05 3.27567e-05 3.37343e-05 3.37343e-05 
    Block 20 cell size :
        i : 1
        j : 0.000571214
        k : 3.27567e-05
    Block 21 cell size :
        i : 1
        j : 0.000571349 0.000571349 0.000573331 0.000573331 
        k : 2.72029e-05 2.72029e-05 2.66833e-05 2.66833e-05 
    Block 22 cell size :
        i : 1
        j : 0.000571349 0.000571349 0.000572477 0.000572477 
        k : 2.65707e-05 2.65707e-05 2.72029e-05 2.72029e-05 
    Block 23 cell size :
        i : 1
        j : 0.000571939 0.000571939 0.000572205 0.000572205 
        k : 3.37343e-05 3.37343e-05 3.56931e-05 3.56931e-05 
    Block 24 cell size :
        i : 1
        j : 0.000687053 0.000687053 0.000688448 0.000688448 
        k : 3.05941e-05 3.05941e-05 3.33766e-05 3.33766e-05 
    Block 25 cell size :
        i : 1
        j : 0.00060617 0.00060617 0.000607425 0.000607425 
        k : 3.56931e-05 3.56931e-05 3.74833e-05 3.74833e-05 
    Block 26 cell size :
        i : 1
        j : 0.000779832 0.000779832 0.00078037 0.00078037 
        k : 3.33766e-05 3.33766e-05 3.73363e-05 3.73363e-05 
    Block 27 cell size :
        i : 1
        j : 3.01496e-05 3.01496e-05 3.21403e-05 3.21403e-05 
        k : 0.0006009 0.0006009 0.000600624 0.000600624 
    Block 28 cell size :
        i : 1
        j : 3.21403e-05 3.21403e-05 3.52278e-05 3.52278e-05 
        k : 0.000680802 0.000680802 0.000681377 0.000681377 
    Block 29 cell size :
        i : 1
        j : 3.40147e-05 3.40147e-05 3.50571e-05 3.50571e-05 
        k : 0.000570777 0.000570777 0.000571626 0.000571626 
    Block 30 cell size :
        i : 1
        j : 3.76431e-05 3.76431e-05 3.68782e-05 3.68782e-05 
        k : 0.000563565 0.000563565 0.000566535 0.000566535 
    Block 31 cell size :
        i : 1
        j : 3.68782e-05 3.68782e-05 3.73363e-05 3.73363e-05 
        k : 0.000565685 0.000565685 0.000568516 0.000568516 
    Block 32 cell size :
        i : 1
        j : 3.73363e-05 3.73363e-05 3.80526e-05 3.80526e-05 
        k : 0.000565685 0.000565685 0.000568516 0.000568516 
    Block 33 cell size :
        i : 1
        j : 3.80526e-05 3.80526e-05 3.8e-05 3.8e-05 
        k : 0.000567665 0.000567665 0.000569646 0.000569646 
    Block 34 cell size :
        i : 1
        j : 3.8e-05 3.8e-05 4.005e-05 4.005e-05 
        k : 0.00056894 0.00056894 0.000570636 0.000570636 
    Block 35 cell size :
        i : 1
        j : 3.36006e-05 3.36006e-05 2.91548e-05 2.91548e-05 
        k : 0.000574321 0.000574321 0.000579548 0.000579548 
    Block 36 cell size :
        i : 1
        j : 3.44819e-05 3.44819e-05 3.26956e-05 3.26956e-05 
        k : 0.000568378 0.000568378 0.00057234 0.00057234 
    Block 37 cell size :
        i : 1
        j : 3.93954e-05 3.93954e-05 3.76431e-05 3.76431e-05 
        k : 0.000562574 0.000562574 0.000567525 0.000567525 
    Block 38 cell size :
        i : 1
        j : 4e-05 4e-05 3.44819e-05 3.44819e-05 
        k : 0.000567116 0.000567116 0.000574321 0.000574321 
    Block 39 cell size :
        i : 1
        j : 0.000571214 0.000571214 0.00057234 0.00057234 
        k : 3.20156e-05 3.20156e-05 3.27567e-05 3.27567e-05 
    Block 40 cell size :
        i : 1
        j : 0.000570947 0.000570947 0.000572205 0.000572205 
        k : 3.8833e-05 3.8833e-05 4.06079e-05 4.06079e-05 
    Block 41 cell size :
        i : 1
        j : 0.000570223 0.000570223 0.000571214 0.000571214 
        k : 3.90512e-05 3.90512e-05 3.8833e-05 3.8833e-05 
    Block 42 cell size :
        i : 1
        j : 0.000571349 0.000571349 0.00057234 0.00057234 
        k : 2.69258e-05 2.69258e-05 2.65707e-05 2.65707e-05 
    Block 43 cell size :
        i : 1
        j : 0.000571214 0.000571214 0.00057234 0.00057234 
        k : 2.64008e-05 2.64008e-05 2.69258e-05 2.69258e-05 
    Block 44 cell size :
        i : 1
        j : 0.000570359 0.000570359 0.000571349 0.000571349 
        k : 3.228e-05 3.228e-05 3.20156e-05 3.20156e-05 
    Block 45 cell size :
        i : 1
        j : 0.000570223 0.000570223 0.000571349 0.000571349 
        k : 3.16228e-05 3.16228e-05 3.228e-05 3.228e-05 
    Block 46 cell size :
        i : 1
        j : 0.000887744 0.000887744 0.000887289 0.000887289 
        k : 3.73363e-05 3.73363e-05 4.14367e-05 4.14367e-05 
    Block 47 cell size :
        i : 1
        j : 0.000571809 0.000571809 0.000571939 0.000571939 
        k : 4.06079e-05 4.06079e-05 4.15933e-05 4.15933e-05 
    Block 48 cell size :
        i : 1
        j : 0.000687654 0.000687654 0.000687053 0.000687053 
        k : 3.74833e-05 3.74833e-05 4.06079e-05 4.06079e-05 
    Block 49 cell size :
        i : 1
        j : 0.000605786 0.000605786 0.00060617 0.00060617 
        k : 4.15933e-05 4.15933e-05 4.45533e-05 4.45533e-05 
    Block 50 cell size :
        i : 1
        j : 0.000779314 0.000779314 0.000779832 0.000779832 
        k : 4.06079e-05 4.06079e-05 4.45533e-05 4.45533e-05 
    Block 51 cell size :
        i : 1
        j : 3.52278e-05 3.52278e-05 3.82099e-05 3.82099e-05 
        k : 0.000772726 0.000772726 0.000772309 0.000772309 
    Block 52 cell size :
        i : 1
        j : 3.50571e-05 3.50571e-05 3.81182e-05 3.81182e-05 
        k : 0.000600337 0.000600337 0.0006009 0.0006009 
    Block 53 cell size :
        i : 1
        j : 3.81182e-05 3.81182e-05 4.11947e-05 4.11947e-05 
        k : 0.000680243 0.000680243 0.000680802 0.000680802 
    Block 54 cell size :
        i : 1
        j : 4.005e-05 4.005e-05 4.31045e-05 4.31045e-05 
        k : 0.000570221 0.000570221 0.000570777 0.000570777 
    Block 55 cell size :
        i : 1
        j : 4.58803e-05 4.58803e-05 4.4911e-05 4.4911e-05 
        k : 0.000559604 0.000559604 0.000563565 0.000563565 
    Block 56 cell size :
        i : 1
        j : 4.4911e-05 4.4911e-05 4.42832e-05 4.42832e-05 
        k : 0.000561726 0.000561726 0.000565685 0.000565685 
    Block 57 cell size :
        i : 1
        j : 4.42832e-05 4.42832e-05 4.50999e-05 4.50999e-05 
        k : 0.000563848 0.000563848 0.000565685 0.000565685 
    Block 58 cell size :
        i : 1
        j : 4.50999e-05 4.50999e-05 4.7e-05 4.7e-05 
        k : 0.000564982 0.000564982 0.000567665 0.000567665 
    Block 59 cell size :
        i : 1
        j : 4.7e-05 4.7e-05 4.90408e-05 4.90408e-05 
        k : 0.000567254 0.000567254 0.00056894 0.00056894 
    Block 60 cell size :
        i : 1
        j : 3.82099e-05 3.82099e-05 4.34166e-05 4.34166e-05 
        k : 0.000878934 0.000878934 0.000880218 0.000880218 
    Block 61 cell size :
        i : 1
        j : 4.34166e-05 4.34166e-05 4.85077e-05 4.85077e-05 
        k : 0.000999001 0.000999001 0.000999298 0.000999298 
    Block 62 cell size :
        i : 1
        j : 4.85077e-05 4.85077e-05 5.44518e-05 5.44518e-05 
        k : 0.00113448 0.00113448 0.00113365 0.00113365 
    Block 63 cell size :
        i : 1
        j : 0.000392594 0.000392594 0.000416915 0.000416915 
        k : 3.36006e-05 3.36006e-05 2.41868e-05 2.41868e-05 
    Block 64 cell size :
        i : 1
        j : 4.16773e-05 4.16773e-05 3.93954e-05 3.93954e-05 
        k : 0.000563425 0.000563425 0.000568378 0.000568378 
    Block 65 cell size :
        i : 1
        j : 4.70106e-05 4.70106e-05 4.58803e-05 4.58803e-05 
        k : 0.000556777 0.000556777 0.000562574 0.000562574 
    Block 66 cell size :
        i : 1
        j : 0.000364177 0.000364177 0.000392594 0.000392594 
        k : 4e-05 4e-05 2.92746e-05 2.92746e-05 
    Block 67 cell size :
        i : 1
        j : 4.78017e-05 4.78017e-05 4.16773e-05 4.16773e-05 
        k : 0.00055892 0.00055892 0.000567116 0.000567116 
    Block 68 cell size :
        i : 1
        j : 0.000571214 0.000571214 0.00057234 0.00057234 
        k : 2.59422e-05 2.59422e-05 2.64008e-05 2.64008e-05 
    Block 69 cell size :
        i : 1
        j : 0.000570223 0.000570223 0.000571214 0.000571214 
        k : 3.92938e-05 3.92938e-05 3.90512e-05 3.90512e-05 
    Block 70 cell size :
        i : 1
        j : 0.000569825 0.000569825 0.000570947 0.000570947 
        k : 4.70744e-05 4.70744e-05 4.78539e-05 4.78539e-05 
    Block 71 cell size :
        i : 1
        j : 0.000570089 0.000570089 0.000570223 0.000570223 
        k : 4.60977e-05 4.60977e-05 4.70744e-05 4.70744e-05 
    Block 72 cell size :
        i : 1
        j : 0.000570223 0.000570223 0.000571349 0.000571349 
        k : 3.10161e-05 3.10161e-05 3.16228e-05 3.16228e-05 
    Block 73 cell size :
        i : 1
        j : 0.000569232 0.000569232 0.000571214 0.000571214 
        k : 3.17805e-05 3.17805e-05 3.10161e-05 3.10161e-05 
    Block 74 cell size :
        i : 1
        j : 0.000569232 0.000569232 0.000570359 0.000570359 
        k : 3.86005e-05 3.86005e-05 3.92938e-05 3.92938e-05 
    Block 75 cell size :
        i : 1
        j : 0.000569232 0.000569232 0.000570223 0.000570223 
        k : 3.88973e-05 3.88973e-05 3.86005e-05 3.86005e-05 
    Block 76 cell size :
        i : 1
        j : 0.00100881 0.00100881 0.00100934 0.00100934 
        k : 4.14367e-05 4.14367e-05 4.53982e-05 4.53982e-05 
    Block 77 cell size :
        i : 1
        j : 0.001145 0.001145 0.00114482 0.00114482 
        k : 4.53982e-05 4.53982e-05 5.14782e-05 5.14782e-05 
    Block 78 cell size :
        i : 1
        j : 0.0013034 0.0013034 0.00130321 0.00130321 
        k : 5.14782e-05 5.14782e-05 5.75587e-05 5.75587e-05 
    Block 79 cell size :
        i : 1
        j : 0.000887099 0.000887099 0.000887744 0.000887744 
        k : 4.45533e-05 4.45533e-05 4.94975e-05 4.94975e-05 
    Block 80 cell size :
        i : 1
        j : 0.000571428 0.000571428 0.000571809 0.000571809 
        k : 4.78539e-05 4.78539e-05 5.08035e-05 5.08035e-05 
    Block 81 cell size :
        i : 1
        j : 0.000687277 0.000687277 0.000687654 0.000687654 
        k : 4.45533e-05 4.45533e-05 4.75184e-05 4.75184e-05 
    Block 82 cell size :
        i : 1
        j : 0.000605417 0.000605417 0.000605786 0.000605786 
        k : 5.08035e-05 5.08035e-05 5.37587e-05 5.37587e-05 
    Block 83 cell size :
        i : 1
        j : 0.000779567 0.000779567 0.000779314 0.000779314 
        k : 4.75184e-05 4.75184e-05 5.36004e-05 5.36004e-05 
    Block 84 cell size :
        i : 1
        j : 4.11947e-05 4.11947e-05 4.63897e-05 4.63897e-05 
        k : 0.000771469 0.000771469 0.000772726 0.000772726 
    Block 85 cell size :
        i : 1
        j : 4.31045e-05 4.31045e-05 4.62709e-05 4.62709e-05 
        k : 0.000598802 0.000598802 0.000600337 0.000600337 
    Block 86 cell size :
        i : 1
        j : 4.62709e-05 4.62709e-05 5.03587e-05 5.03587e-05 
        k : 0.000679848 0.000679848 0.000680243 0.000680243 
    Block 87 cell size :
        i : 1
        j : 4.90408e-05 4.90408e-05 5.11566e-05 5.11566e-05 
        k : 0.000568542 0.000568542 0.000570221 0.000570221 
    Block 88 cell size :
        i : 1
        j : 5.47083e-05 5.47083e-05 5.41295e-05 5.41295e-05 
        k : 0.000553809 0.000553809 0.000559604 0.000559604 
    Block 89 cell size :
        i : 1
        j : 5.41295e-05 5.41295e-05 5.44518e-05 5.44518e-05 
        k : 0.000557911 0.000557911 0.000561726 0.000561726 
    Block 90 cell size :
        i : 1
        j : 5.44518e-05 5.44518e-05 5.50818e-05 5.50818e-05 
        k : 0.000560036 0.000560036 0.000563848 0.000563848 
    Block 91 cell size :
        i : 1
        j : 5.50818e-05 5.50818e-05 5.60089e-05 5.60089e-05 
        k : 0.00056315 0.00056315 0.000564982 0.000564982 
    Block 92 cell size :
        i : 1
        j : 5.60089e-05 5.60089e-05 5.80345e-05 5.80345e-05 
        k : 0.000564588 0.000564588 0.000567254 0.000567254 
    Block 93 cell size :
        i : 1
        j : 5.44518e-05 5.44518e-05 6.0531e-05 6.0531e-05 
        k : 0.00129089 0.00129089 0.00129105 0.00129105 
    Block 94 cell size :
        i : 1
        j : 4.63897e-05 4.63897e-05 5.13517e-05 5.13517e-05 
        k : 0.000879659 0.000879659 0.000878934 0.000878934 
    Block 95 cell size :
        i : 1
        j : 5.13517e-05 5.13517e-05 5.85491e-05 5.85491e-05 
        k : 0.000998035 0.000998035 0.000999001 0.000999001 
    Block 96 cell size :
        i : 1
        j : 5.85491e-05 5.85491e-05 6.46297e-05 6.46297e-05 
        k : 0.00113436 0.00113436 0.00113448 0.00113448 
    Block 97 cell size :
        i : 1
        j : 0.000384267 0.000384267 0.000383678 0.000383678 
        k : 2.31948e-05 2.31948e-05 2.63059e-05 2.63059e-05 
    Block 98 cell size :
        i : 1
        j : 2.92746e-05
        k : 3.36006e-05 3.36006e-05 7.5e-05 7.5e-05 
    Block 99 cell size :
        i : 1
        j : 4.97393e-05 4.97393e-05 4.70106e-05 4.70106e-05 
        k : 0.000557484 0.000557484 0.000563425 0.000563425 
    Block 100 cell size :
        i : 1
        j : 5.64624e-05 5.64624e-05 5.47083e-05 5.47083e-05 
        k : 0.00055183 0.00055183 0.000556777 0.000556777 
    Block 101 cell size :
        i : 1
        j : 0.000330807 0.000330807 0.000364177 0.000364177 
        k : 4.78017e-05 4.78017e-05 3.43657e-05 3.43657e-05 
    Block 102 cell size :
        i : 1
        j : 5.70088e-05 5.70088e-05 4.97393e-05 4.97393e-05 
        k : 0.000548744 0.000548744 0.00055892 0.00055892 
    Block 103 cell size :
        i : 1
        j : 0.000570089 0.000570089 0.000573331 0.000573331 
        k : 2.5807e-05 2.5807e-05 2.59422e-05 2.59422e-05 
    Block 104 cell size :
        i : 1
        j : 0.000568965 0.000568965 0.000571214 0.000571214 
        k : 3.08869e-05 3.08869e-05 3.17805e-05 3.17805e-05 
    Block 105 cell size :
        i : 1
        j : 0.000568107 0.000568107 0.000570223 0.000570223 
        k : 4.5607e-05 4.5607e-05 4.60977e-05 4.60977e-05 
    Block 106 cell size :
        i : 1
        j : 0.000569569 0.000569569 0.000569825 0.000569825 
        k : 5.60892e-05 5.60892e-05 5.80517e-05 5.80517e-05 
    Block 107 cell size :
        i : 1
        j : 0.000567974 0.000567974 0.000570089 0.000570089 
        k : 5.55428e-05 5.55428e-05 5.60892e-05 5.60892e-05 
    Block 108 cell size :
        i : 1
        j : 0.000567116 0.000567116 0.000570223 0.000570223 
        k : 3.9e-05 3.9e-05 3.88973e-05 3.88973e-05 
    Block 109 cell size :
        i : 1
        j : 0.000567974 0.000567974 0.000569232 0.000569232 
        k : 3.75766e-05 3.75766e-05 3.9e-05 3.9e-05 
    Block 110 cell size :
        i : 1
        j : 0.000568241 0.000568241 0.000569232 0.000569232 
        k : 4.58803e-05 4.58803e-05 4.5607e-05 4.5607e-05 
    Block 111 cell size :
        i : 1
        j : 0.00056725 0.00056725 0.000569232 0.000569232 
        k : 4.64866e-05 4.64866e-05 4.58803e-05 4.58803e-05 
    Block 112 cell size :
        i : 1
        j : 0.000570223 0.000570223 0.00057234 0.00057234 
        k : 2.62488e-05 2.62488e-05 2.5807e-05 2.5807e-05 
    Block 113 cell size :
        i : 1
        j : 6.0531e-05 6.0531e-05 6.66108e-05 6.66108e-05 
        k : 0.00146357 0.00146357 0.00146373 0.00146373 
    Block 114 cell size :
        i : 1
        j : 6.66108e-05 6.66108e-05 7.07107e-05 7.07107e-05 
        k : 0.00166722 0.00166722 0.00166766 0.00166766 
    Block 115 cell size :
        i : 1
        j : 0.00101002 0.00101002 0.00100881 0.00100881 
        k : 4.94975e-05 4.94975e-05 5.57315e-05 5.57315e-05 
    Block 116 cell size :
        i : 1
        j : 0.0011441 0.0011441 0.001145 0.001145 
        k : 5.57315e-05 5.57315e-05 6.26498e-05 6.26498e-05 
    Block 117 cell size :
        i : 1
        j : 0.00147918 0.00147918 0.00147872 0.00147872 
        k : 5.75587e-05 5.75587e-05 6.16604e-05 6.16604e-05 
    Block 118 cell size :
        i : 1
        j : 7.07107e-05 7.07107e-05 7.36817e-05 7.36817e-05 
        k : 0.00188799 0.00188799 0.00188758 0.00188758 
    Block 119 cell size :
        i : 1
        j : 0.00168112 0.00168112 0.0016818 0.0016818 
        k : 6.16604e-05 6.16604e-05 6.66108e-05 6.66108e-05 
    Block 120 cell size :
        i : 1
        j : 0.00191136 0.00191136 0.00191091 0.00191091 
        k : 6.66108e-05 6.66108e-05 7.07107e-05 7.07107e-05 
    Block 121 cell size :
        i : 1
        j : 0.00203494 0.00203494 0.00203508 0.00203508 
        k : 7.26911e-05 7.26911e-05 7.36817e-05 7.36817e-05 
    Block 122 cell size :
        i : 1
        j : 0.0021034 0.0021034 0.00210367 0.00210367 
        k : 7.07107e-05 7.07107e-05 7.26911e-05 7.26911e-05 
    Block 123 cell size :
        i : 1
        j : 0.00130275 0.00130275 0.0013034 0.0013034 
        k : 6.26498e-05 6.26498e-05 6.76018e-05 6.76018e-05 
    Block 124 cell size :
        i : 1
        j : 0.000887354 0.000887354 0.000887099 0.000887099 
        k : 5.36004e-05 5.36004e-05 5.96825e-05 5.96825e-05 
    Block 125 cell size :
        i : 1
        j : 0.00057019 0.00057019 0.000571428 0.000571428 
        k : 5.80517e-05 5.80517e-05 5.98415e-05 5.98415e-05 
    Block 126 cell size :
        i : 1
        j : 0.000687669 0.000687669 0.000687277 0.000687277 
        k : 5.37587e-05 5.37587e-05 5.88558e-05 5.88558e-05 
    Block 127 cell size :
        i : 1
        j : 0.000605941 0.000605941 0.000605417 0.000605417 
        k : 5.98415e-05 5.98415e-05 6.39531e-05 6.39531e-05 
    Block 128 cell size :
        i : 1
        j : 0.000778987 0.000778987 0.000779567 0.000779567 
        k : 5.88558e-05 5.88558e-05 6.37887e-05 6.37887e-05 
    Block 129 cell size :
        i : 1
        j : 5.03587e-05 5.03587e-05 5.54437e-05 5.54437e-05 
        k : 0.000771236 0.000771236 0.000771469 0.000771469 
    Block 130 cell size :
        i : 1
        j : 5.11566e-05 5.11566e-05 5.4231e-05 5.4231e-05 
        k : 0.000598273 0.000598273 0.000598802 0.000598802 
    Block 131 cell size :
        i : 1
        j : 5.4231e-05 5.4231e-05 6.0407e-05 6.0407e-05 
        k : 0.000678809 0.000678809 0.000679848 0.000679848 
    Block 132 cell size :
        i : 1
        j : 5.80345e-05 5.80345e-05 6.12046e-05 6.12046e-05 
        k : 0.000566041 0.000566041 0.000568542 0.000568542 
    Block 133 cell size :
        i : 1
        j : 6.4846e-05 6.4846e-05 6.55134e-05 6.55134e-05 
        k : 0.000549157 0.000549157 0.000553809 0.000553809 
    Block 134 cell size :
        i : 1
        j : 6.55134e-05 6.55134e-05 6.44981e-05 6.44981e-05 
        k : 0.000551976 0.000551976 0.000557911 0.000557911 
    Block 135 cell size :
        i : 1
        j : 6.44981e-05 6.44981e-05 6.5123e-05 6.5123e-05 
        k : 0.000556227 0.000556227 0.000560036 0.000560036 
    Block 136 cell size :
        i : 1
        j : 6.5123e-05 6.5123e-05 6.7e-05 6.7e-05 
        k : 0.000559494 0.000559494 0.00056315 0.00056315 
    Block 137 cell size :
        i : 1
        j : 6.7e-05 6.7e-05 7.00643e-05 7.00643e-05 
        k : 0.000562091 0.000562091 0.000564588 0.000564588 
    Block 138 cell size :
        i : 1
        j : 6.46297e-05 6.46297e-05 7.26911e-05 7.26911e-05 
        k : 0.00129106 0.00129106 0.00129089 0.00129089 
    Block 139 cell size :
        i : 1
        j : 5.54437e-05 5.54437e-05 6.15224e-05 6.15224e-05 
        k : 0.000879578 0.000879578 0.000879659 0.000879659 
    Block 140 cell size :
        i : 1
        j : 6.15224e-05 6.15224e-05 6.95845e-05 6.95845e-05 
        k : 0.000998264 0.000998264 0.000998035 0.000998035 
    Block 141 cell size :
        i : 1
        j : 6.95845e-05 6.95845e-05 7.87718e-05 7.87718e-05 
        k : 0.00113374 0.00113374 0.00113436 0.00113436 
    Block 142 cell size :
        i : 1
        j : 0.000384138 0.000384138 0.000384267 0.000384267 
        k : 2.92746e-05 2.92746e-05 3.02655e-05 3.02655e-05 
    Block 143 cell size :
        i : 1
        j : 3.43657e-05 3.43657e-05 3.53553e-05 3.53553e-05 
        k : 7.5e-05 7.5e-05 0.000124201 0.000124201 
    Block 144 cell size :
        i : 1
        j : 6.05392e-05 6.05392e-05 5.64624e-05 5.64624e-05 
        k : 0.000548574 0.000548574 0.000557484 0.000557484 
    Block 145 cell size :
        i : 1
        j : 6.7624e-05 6.7624e-05 6.4846e-05 6.4846e-05 
        k : 0.000543915 0.000543915 0.00055183 0.00055183 
    Block 146 cell size :
        i : 1
        j : 0.000290241 0.000290241 0.000330807 0.000330807 
        k : 5.70088e-05 5.70088e-05 4.22966e-05 4.22966e-05 
    Block 147 cell size :
        i : 1
        j : 6.86003e-05 6.86003e-05 6.05392e-05 6.05392e-05 
        k : 0.000538439 0.000538439 0.000548744 0.000548744 
    Block 148 cell size :
        i : 1
        j : 0.000567974 0.000567974 0.000570089 0.000570089 
        k : 3.10644e-05 3.10644e-05 3.08869e-05 3.08869e-05 
    Block 149 cell size :
        i : 1
        j : 0.000566851 0.000566851 0.000568965 0.000568965 
        k : 3.75899e-05 3.75899e-05 3.75766e-05 3.75766e-05 
    Block 150 cell size :
        i : 1
        j : 0.000568107
        k : 5.55428e-05
    Block 151 cell size :
        i : 1
        j : 0.000569444 0.000569444 0.000569569 0.000569569 
        k : 6.84471e-05 6.84471e-05 6.94262e-05 6.94262e-05 
    Block 152 cell size :
        i : 1
        j : 0.000566721 0.000566721 0.000567974 0.000567974 
        k : 6.67083e-05 6.67083e-05 6.84471e-05 6.84471e-05 
    Block 153 cell size :
        i : 1
        j : 0.000565991 0.000565991 0.000567116 0.000567116 
        k : 4.58803e-05 4.58803e-05 4.64866e-05 4.64866e-05 
    Block 154 cell size :
        i : 1
        j : 0.000563877 0.000563877 0.000567974 0.000567974 
        k : 4.65188e-05 4.65188e-05 4.58803e-05 4.58803e-05 
    Block 155 cell size :
        i : 1
        j : 0.00056626 0.00056626 0.000568241 0.000568241 
        k : 5.60446e-05 5.60446e-05 5.55428e-05 5.55428e-05 
    Block 156 cell size :
        i : 1
        j : 0.000564009 0.000564009 0.00056725 0.00056725 
        k : 5.50273e-05 5.50273e-05 5.60446e-05 5.60446e-05 
    Block 157 cell size :
        i : 1
        j : 0.000567974 0.000567974 0.000570223 0.000570223 
        k : 3.06105e-05 3.06105e-05 3.10644e-05 3.10644e-05 
    Block 158 cell size :
        i : 1
        j : 0.000570223 0.000570223 0.00057234 0.00057234 
        k : 2.68701e-05 2.68701e-05 2.62488e-05 2.62488e-05 
    Block 159 cell size :
        i : 1
        j : 0.000567387 0.000567387 0.000572477 0.000572477 
        k : 3e-05 3e-05 2.68701e-05 2.68701e-05 
    Block 160 cell size :
        i : 1
        j : 7.26911e-05 7.26911e-05 7.96304e-05 7.96304e-05 
        k : 0.00146457 0.00146457 0.00146357 0.00146357 
    Block 161 cell size :
        i : 1
        j : 7.96304e-05 7.96304e-05 8.48528e-05 8.48528e-05 
        k : 0.00166594 0.00166594 0.00166722 0.00166722 
    Block 162 cell size :
        i : 1
        j : 0.00100916 0.00100916 0.00101002 0.00101002 
        k : 5.96825e-05 5.96825e-05 6.66108e-05 6.66108e-05 
    Block 163 cell size :
        i : 1
        j : 0.00114522 0.00114522 0.0011441 0.0011441 
        k : 6.66108e-05 6.66108e-05 7.38241e-05 7.38241e-05 
    Block 164 cell size :
        i : 1
        j : 0.00147925 0.00147925 0.00147918 0.00147918 
        k : 6.76018e-05 6.76018e-05 7.46726e-05 7.46726e-05 
    Block 165 cell size :
        i : 1
        j : 8.48528e-05 8.48528e-05 8.68332e-05 8.68332e-05 
        k : 0.00188826 0.00188826 0.00188799 0.00188799 
    Block 166 cell size :
        i : 1
        j : 0.00168145 0.00168145 0.00168112 0.00168112 
        k : 7.46726e-05 7.46726e-05 7.97621e-05 7.97621e-05 
    Block 167 cell size :
        i : 1
        j : 0.00191069 0.00191069 0.00191136 0.00191136 
        k : 7.97621e-05 7.97621e-05 8.47172e-05 8.47172e-05 
    Block 168 cell size :
        i : 1
        j : 0.00203494
        k : 8.68332e-05
    Block 169 cell size :
        i : 1
        j : 0.00210412 0.00210412 0.0021034 0.0021034 
        k : 8.47172e-05 8.47172e-05 8.68332e-05 8.68332e-05 
    Block 170 cell size :
        i : 1
        j : 0.00130274
        k : 7.38241e-05 7.38241e-05 8.18841e-05 8.18841e-05 
    Block 171 cell size :
        i : 1
        j : 0.000887428 0.000887428 0.000887354 0.000887354 
        k : 6.37887e-05 6.37887e-05 7.18471e-05 7.18471e-05 
    Block 172 cell size :
        i : 1
        j : 0.000568842 0.000568842 0.00057019 0.00057019 
        k : 6.94262e-05 6.94262e-05 7.21803e-05 7.21803e-05 
    Block 173 cell size :
        i : 1
        j : 0.000687106 0.000687106 0.000687669 0.000687669 
        k : 6.39531e-05 6.39531e-05 6.8884e-05 6.8884e-05 
    Block 174 cell size :
        i : 1
        j : 0.000605392 0.000605392 0.000605941 0.000605941 
        k : 7.21803e-05 7.21803e-05 7.71038e-05 7.71038e-05 
    Block 175 cell size :
        i : 1
        j : 0.000779118 0.000779118 0.000778987 0.000778987 
        k : 6.8884e-05 6.8884e-05 7.69415e-05 7.69415e-05 
    Block 176 cell size :
        i : 1
        j : 6.0407e-05 6.0407e-05 6.64831e-05 6.64831e-05 
        k : 0.000771198 0.000771198 0.000771236 0.000771236 
    Block 177 cell size :
        i : 1
        j : 6.12046e-05 6.12046e-05 6.63702e-05 6.63702e-05 
        k : 0.000597097 0.000597097 0.000598273 0.000598273 
    Block 178 cell size :
        i : 1
        j : 6.63702e-05 6.63702e-05 7.14493e-05 7.14493e-05 
        k : 0.000678643 0.000678643 0.000678809 0.000678809 
    Block 179 cell size :
        i : 1
        j : 7.00643e-05 7.00643e-05 7.41687e-05 7.41687e-05 
        k : 0.000564711 0.000564711 0.000566041 0.000566041 
    Block 180 cell size :
        i : 1
        j : 7.96994e-05 7.96994e-05 7.74661e-05 7.74661e-05 
        k : 0.000540259 0.000540259 0.000549157 0.000549157 
    Block 181 cell size :
        i : 1
        j : 7.74661e-05 7.74661e-05 7.76466e-05 7.76466e-05 
        k : 0.000547179 0.000547179 0.000551976 0.000551976 
    Block 182 cell size :
        i : 1
        j : 7.76466e-05 7.76466e-05 7.91012e-05 7.91012e-05 
        k : 0.000550601 0.000550601 0.000556227 0.000556227 
    Block 183 cell size :
        i : 1
        j : 7.91012e-05 7.91012e-05 8.1e-05 8.1e-05 
        k : 0.000555851 0.000555851 0.000559494 0.000559494 
    Block 184 cell size :
        i : 1
        j : 8.1e-05 8.1e-05 8.40952e-05 8.40952e-05 
        k : 0.000558628 0.000558628 0.000562091 0.000562091 
    Block 185 cell size :
        i : 1
        j : 7.87718e-05 7.87718e-05 8.68332e-05 8.68332e-05 
        k : 0.00129127 0.00129127 0.00129106 0.00129106 
    Block 186 cell size :
        i : 1
        j : 6.64831e-05 6.64831e-05 7.46726e-05 7.46726e-05 
        k : 0.000878877 0.000878877 0.000879578 0.000879578 
    Block 187 cell size :
        i : 1
        j : 7.46726e-05 7.46726e-05 8.27345e-05 8.27345e-05 
        k : 0.000998559 0.000998559 0.000998264 0.000998264 
    Block 188 cell size :
        i : 1
        j : 8.27345e-05 8.27345e-05 9.3771e-05 9.3771e-05 
        k : 0.00113452 0.00113452 0.00113374 0.00113374 
    Block 189 cell size :
        i : 1
        j : 0.000562027 0.000562027 0.00056117 0.00056117 
        k : 2.61725e-05 2.61725e-05 2.72947e-05 2.72947e-05 
    Block 190 cell size :
        i : 1
        j : 3.02655e-05 3.02655e-05 3.04138e-05 3.04138e-05 
        k : 3.64005e-05 3.64005e-05 8e-05 8e-05 
    Block 191 cell size :
        i : 1
        j : 0.000384012 0.000384012 0.000384138 0.000384138 
        k : 3.53553e-05 3.53553e-05 3.63456e-05 3.63456e-05 
    Block 192 cell size :
        i : 1
        j : 4.22966e-05 4.22966e-05 4.14367e-05 4.14367e-05 
        k : 0.000124201 0.000124201 0.000184201 0.000184201 
    Block 193 cell size :
        i : 1
        j : 7.16938e-05 7.16938e-05 6.7624e-05 6.7624e-05 
        k : 0.000539667 0.000539667 0.000548574 0.000548574 
    Block 194 cell size :
        i : 1
        j : 8.15414e-05 8.15414e-05 7.96994e-05 7.96994e-05 
        k : 0.000536154 0.000536154 0.000543915 0.000543915 
    Block 195 cell size :
        i : 1
        j : 0.000241628 0.000241628 0.000290241 0.000290241 
        k : 6.86003e-05 6.86003e-05 4.94975e-05 4.94975e-05 
    Block 196 cell size :
        i : 1
        j : 8.2801e-05 8.2801e-05 7.16938e-05 7.16938e-05 
        k : 0.000524047 0.000524047 0.000538439 0.000538439 
    Block 197 cell size :
        i : 1
        j : 0.000565601 0.000565601 0.000567974 0.000567974 
        k : 3.60555e-05 3.60555e-05 3.75899e-05 3.75899e-05 
    Block 198 cell size :
        i : 1
        j : 0.000564483 0.000564483 0.000566851 0.000566851 
        k : 4.47772e-05 4.47772e-05 4.65188e-05 4.65188e-05 
    Block 199 cell size :
        i : 1
        j : 0.000566125 0.000566125 0.000568107 0.000568107 
        k : 6.71863e-05 6.71863e-05 6.67083e-05 6.67083e-05 
    Block 200 cell size :
        i : 1
        j : 0.000567092 0.000567092 0.000569444 0.000569444 
        k : 8.08084e-05 8.08084e-05 8.33607e-05 8.33607e-05 
    Block 201 cell size :
        i : 1
        j : 0.00056573 0.00056573 0.000566721 0.000566721 
        k : 8.10247e-05 8.10247e-05 8.08084e-05 8.08084e-05 
    Block 202 cell size :
        i : 1
        j : 0.000563018 0.000563018 0.000565991 0.000565991 
        k : 5.60803e-05 5.60803e-05 5.50273e-05 5.50273e-05 
    Block 203 cell size :
        i : 1
        j : 0.000561634 0.000561634 0.000563877 0.000563877 
        k : 5.50364e-05 5.50364e-05 5.60803e-05 5.60803e-05 
    Block 204 cell size :
        i : 1
        j : 0.000564143 0.000564143 0.00056626 0.00056626 
        k : 6.67608e-05 6.67608e-05 6.71863e-05 6.71863e-05 
    Block 205 cell size :
        i : 1
        j : 0.000562027 0.000562027 0.000564009 0.000564009 
        k : 6.73573e-05 6.73573e-05 6.67608e-05 6.67608e-05 
    Block 206 cell size :
        i : 1
        j : 0.000563746 0.000563746 0.000567974 0.000567974 
        k : 3.68782e-05 3.68782e-05 3.60555e-05 3.60555e-05 
    Block 207 cell size :
        i : 1
        j : 0.000565134 0.000565134 0.000570223 0.000570223 
        k : 3.32415e-05 3.32415e-05 3.06105e-05 3.06105e-05 
    Block 208 cell size :
        i : 1
        j : 3e-05 3e-05 2.12132e-05 2.12132e-05 
        k : 0.000394711 0.000394711 0.000415924 0.000415924 
    Block 209 cell size :
        i : 1
        j : 0.000561307 0.000561307 0.000567387 0.000567387 
        k : 3.72022e-05 3.72022e-05 3.32415e-05 3.32415e-05 
    Block 210 cell size :
        i : 1
        j : 8.68332e-05 8.68332e-05 9.48947e-05 9.48947e-05 
        k : 0.00146477 0.00146477 0.00146457 0.00146457 
    Block 211 cell size :
        i : 1
        j : 9.48947e-05 9.48947e-05 0.000101833 0.000101833 
        k : 0.00166695 0.00166695 0.00166594 0.00166594 
    Block 212 cell size :
        i : 1
        j : 0.00100923 0.00100923 0.00100916 0.00100916 
        k : 7.18471e-05 7.18471e-05 7.99062e-05 7.99062e-05 
    Block 213 cell size :
        i : 1
        j : 0.00114418 0.00114418 0.00114522 0.00114522 
        k : 7.99062e-05 7.99062e-05 8.88144e-05 8.88144e-05 
    Block 214 cell size :
        i : 1
        j : 0.00147936 0.00147936 0.00147925 0.00147925 
        k : 8.18841e-05 8.18841e-05 8.8955e-05 8.8955e-05 
    Block 215 cell size :
        i : 1
        j : 0.000101833 0.000101833 0.000104938 0.000104938 
        k : 0.00188769 0.00188769 0.00188826 0.00188826 
    Block 216 cell size :
        i : 1
        j : 0.00168154 0.00168154 0.00168145 0.00168145 
        k : 8.8955e-05 8.8955e-05 9.6026e-05 9.6026e-05 
    Block 217 cell size :
        i : 1
        j : 0.00191004 0.00191004 0.00191069 0.00191069 
        k : 9.6026e-05 9.6026e-05 0.000100975 0.000100975 
    Block 218 cell size :
        i : 1
        j : 0.00203494
        k : 0.000104938
    Block 219 cell size :
        i : 1
        j : 0.00210358 0.00210358 0.00210412 0.00210412 
        k : 0.000100975 0.000100975 0.000104938 0.000104938 
    Block 220 cell size :
        i : 1
        j : 0.00130354 0.00130354 0.00130274 0.00130274 
        k : 8.88144e-05 8.88144e-05 9.89949e-05 9.89949e-05 
    Block 221 cell size :
        i : 1
        j : 0.000886479 0.000886479 0.000887428 0.000887428 
        k : 7.69415e-05 7.69415e-05 8.58429e-05 8.58429e-05 
    Block 222 cell size :
        i : 1
        j : 0.000569386 0.000569386 0.000568842 0.000568842 
        k : 8.33607e-05 8.33607e-05 8.74757e-05 8.74757e-05 
    Block 223 cell size :
        i : 1
        j : 0.000686377 0.000686377 0.000687106 0.000687106 
        k : 7.71038e-05 7.71038e-05 8.40119e-05 8.40119e-05 
    Block 224 cell size :
        i : 1
        j : 0.000603889 0.000603889 0.000605392 0.000605392 
        k : 8.74757e-05 8.74757e-05 9.2228e-05 9.2228e-05 
    Block 225 cell size :
        i : 1
        j : 0.000779333 0.000779333 0.000779118 0.000779118 
        k : 8.40119e-05 8.40119e-05 9.20706e-05 9.20706e-05 
    Block 226 cell size :
        i : 1
        j : 7.14493e-05 7.14493e-05 7.96304e-05 7.96304e-05 
        k : 0.000770565 0.000770565 0.000771198 0.000771198 
    Block 227 cell size :
        i : 1
        j : 7.41687e-05 7.41687e-05 7.93095e-05 7.93095e-05 
        k : 0.000595968 0.000595968 0.000597097 0.000597097 
    Block 228 cell size :
        i : 1
        j : 7.93095e-05 7.93095e-05 8.65794e-05 8.65794e-05 
        k : 0.000676903 0.000676903 0.000678643 0.000678643 
    Block 229 cell size :
        i : 1
        j : 8.40952e-05 8.40952e-05 8.8278e-05 8.8278e-05 
        k : 0.000562428 0.000562428 0.000564711 0.000564711 
    Block 230 cell size :
        i : 1
        j : 9.4255e-05 9.4255e-05 9.31719e-05 9.31719e-05 
        k : 0.000532508 0.000532508 0.000540259 0.000540259 
    Block 231 cell size :
        i : 1
        j : 9.31719e-05 9.31719e-05 9.36483e-05 9.36483e-05 
        k : 0.000538591 0.000538591 0.000547179 0.000547179 
    Block 232 cell size :
        i : 1
        j : 9.36483e-05 9.36483e-05 9.41913e-05 9.41913e-05 
        k : 0.000545818 0.000545818 0.000550601 0.000550601 
    Block 233 cell size :
        i : 1
        j : 9.41913e-05 9.41913e-05 9.7e-05 9.7e-05 
        k : 0.000550408 0.000550408 0.000555851 0.000555851 
    Block 234 cell size :
        i : 1
        j : 9.7e-05 9.7e-05 0.00010008 0.00010008 
        k : 0.000555188 0.000555188 0.000558628 0.000558628 
    Block 235 cell size :
        i : 1
        j : 9.3771e-05 9.3771e-05 0.000103947 0.000103947 
        k : 0.00129087 0.00129087 0.00129127 0.00129127 
    Block 236 cell size :
        i : 1
        j : 7.96304e-05 7.96304e-05 8.88144e-05 8.88144e-05 
        k : 0.000878427 0.000878427 0.000878877 0.000878877 
    Block 237 cell size :
        i : 1
        j : 8.88144e-05 8.88144e-05 0.000100841 0.000100841 
        k : 0.000999616 0.000999616 0.000998559 0.000998559 
    Block 238 cell size :
        i : 1
        j : 0.000100841 0.000100841 0.000112147 0.000112147 
        k : 0.00113343 0.00113343 0.00113452 0.00113452 
    Block 239 cell size :
        i : 1
        j : 0.000635444 0.000635444 0.000634988 0.000634988 
        k : 2.72947e-05 2.72947e-05 3.14006e-05 3.14006e-05 
    Block 240 cell size :
        i : 1
        j : 0.000560515 0.000560515 0.000562027 0.000562027 
        k : 3.04138e-05 3.04138e-05 3.42345e-05 3.42345e-05 
    Block 241 cell size :
        i : 1
        j : 3.63456e-05 3.63456e-05 3.73363e-05 3.73363e-05 
        k : 8e-05 8e-05 0.000132004 0.000132004 
    Block 242 cell size :
        i : 1
        j : 0.000383648 0.000383648 0.000384012 0.000384012 
        k : 4.14367e-05 4.14367e-05 4.44072e-05 4.44072e-05 
    Block 243 cell size :
        i : 1
        j : 4.94975e-05 4.94975e-05 5.03587e-05 5.03587e-05 
        k : 0.000184201 0.000184201 0.000254008 0.000254008 
    Block 244 cell size :
        i : 1
        j : 8.64523e-05 8.64523e-05 8.15414e-05 8.15414e-05 
        k : 0.000528784 0.000528784 0.000539667 0.000539667 
    Block 245 cell size :
        i : 1
        j : 9.717e-05 9.717e-05 9.4255e-05 9.4255e-05 
        k : 0.000525438 0.000525438 0.000536154 0.000536154 
    Block 246 cell size :
        i : 1
        j : 0.000182888 0.000182888 0.000241628 0.000241628 
        k : 8.2801e-05 8.2801e-05 6.0531e-05 6.0531e-05 
    Block 247 cell size :
        i : 1
        j : 9.92018e-05 9.92018e-05 8.64523e-05 8.64523e-05 
        k : 0.000506685 0.000506685 0.000524047 0.000524047 
    Block 248 cell size :
        i : 1
        j : 0.000574321 0.000574321 0.00057743 0.00057743 
        k : 2.77849e-05 2.77849e-05 2.7313e-05 2.7313e-05 
    Block 249 cell size :
        i : 1
        j : 0.000575177 0.000575177 0.000576439 0.000576439 
        k : 2.66271e-05 2.66271e-05 2.77849e-05 2.77849e-05 
    Block 250 cell size :
        i : 1
        j : 0.000562374 0.000562374 0.000565601 0.000565601 
        k : 4.46542e-05 4.46542e-05 4.47772e-05 4.47772e-05 
    Block 251 cell size :
        i : 1
        j : 0.000561135 0.000561135 0.000564483 0.000564483 
        k : 5.37122e-05 5.37122e-05 5.50364e-05 5.50364e-05 
    Block 252 cell size :
        i : 1
        j : 0.000563877 0.000563877 0.000566125 0.000566125 
        k : 7.9555e-05 7.9555e-05 8.10247e-05 8.10247e-05 
    Block 253 cell size :
        i : 1
        j : 0.000565746 0.000565746 0.000567092 0.000567092 
        k : 9.80612e-05 9.80612e-05 0.000100807 0.000100807 
    Block 254 cell size :
        i : 1
        j : 0.000563491 0.000563491 0.00056573 0.00056573 
        k : 9.65401e-05 9.65401e-05 9.80612e-05 9.80612e-05 
    Block 255 cell size :
        i : 1
        j : 0.000559651 0.000559651 0.000563018 0.000563018 
        k : 6.55515e-05 6.55515e-05 6.73573e-05 6.73573e-05 
    Block 256 cell size :
        i : 1
        j : 0.000558405 0.000558405 0.000561634 0.000561634 
        k : 6.48845e-05 6.48845e-05 6.55515e-05 6.55515e-05 
    Block 257 cell size :
        i : 1
        j : 0.000561036 0.000561036 0.000564143 0.000564143 
        k : 7.9404e-05 7.9404e-05 7.9555e-05 7.9555e-05 
    Block 258 cell size :
        i : 1
        j : 0.00055892 0.00055892 0.000562027 0.000562027 
        k : 7.93788e-05 7.93788e-05 7.9404e-05 7.9404e-05 
    Block 259 cell size :
        i : 1
        j : 0.000560515 0.000560515 0.000563746 0.000563746 
        k : 4.48219e-05 4.48219e-05 4.46542e-05 4.46542e-05 
    Block 260 cell size :
        i : 1
        j : 0.000561036 0.000561036 0.000565134 0.000565134 
        k : 3.88973e-05 3.88973e-05 3.68782e-05 3.68782e-05 
    Block 261 cell size :
        i : 1
        j : 3.72022e-05 3.72022e-05 2.63059e-05 2.63059e-05 
        k : 0.000368409 0.000368409 0.000394711 0.000394711 
    Block 262 cell size :
        i : 1
        j : 0.000554374 0.000554374 0.000561307 0.000561307 
        k : 4.42041e-05 4.42041e-05 3.88973e-05 3.88973e-05 
    Block 263 cell size :
        i : 1
        j : 2.12132e-05 2.12132e-05 2.41868e-05 2.41868e-05 
        k : 0.000384949 0.000384949 0.000384532 0.000384532 
    Block 264 cell size :
        i : 1
        j : 0.000103947 0.000103947 0.000114127 0.000114127 
        k : 0.00146434 0.00146434 0.00146477 0.00146477 
    Block 265 cell size :
        i : 1
        j : 0.000114127 0.000114127 0.000121198 0.000121198 
        k : 0.001667 0.001667 0.00166695 0.00166695 
    Block 266 cell size :
        i : 1
        j : 0.00101016 0.00101016 0.00100923 0.00100923 
        k : 8.58429e-05 8.58429e-05 9.6026e-05 9.6026e-05 
    Block 267 cell size :
        i : 1
        j : 0.00114499 0.00114499 0.00114418 0.00114418 
        k : 9.6026e-05 9.6026e-05 0.000107201 0.000107201 
    Block 268 cell size :
        i : 1
        j : 0.00147939 0.00147939 0.00147936 0.00147936 
        k : 9.89949e-05 9.89949e-05 0.000107056 0.000107056 
    Block 269 cell size :
        i : 1
        j : 0.000121198 0.000121198 0.000126289 0.000126289 
        k : 0.00188741 0.00188741 0.00188769 0.00188769 
    Block 270 cell size :
        i : 1
        j : 0.00168154
        k : 0.000107056 0.000107056 0.000115117 0.000115117 
    Block 271 cell size :
        i : 1
        j : 0.00191026 0.00191026 0.00191004 0.00191004 
        k : 0.000115117 0.000115117 0.000121198 0.000121198 
    Block 272 cell size :
        i : 1
        j : 0.00203481 0.00203481 0.00203494 0.00203494 
        k : 0.0001253 0.0001253 0.000126289 0.000126289 
    Block 273 cell size :
        i : 1
        j : 0.00210405 0.00210405 0.00210358 0.00210358 
        k : 0.000121198 0.000121198 0.0001253 0.0001253 
    Block 274 cell size :
        i : 1
        j : 0.00130244 0.00130244 0.00130354 0.00130354 
        k : 0.000107201 0.000107201 0.000117098 0.000117098 
    Block 275 cell size :
        i : 1
        j : 0.000887435 0.000887435 0.000886479 0.000886479 
        k : 9.20706e-05 9.20706e-05 0.000103247 0.000103247 
    Block 276 cell size :
        i : 1
        j : 0.000567969 0.000567969 0.000569386 0.000569386 
        k : 0.000100807 0.000100807 0.000104561 0.000104561 
    Block 277 cell size :
        i : 1
        j : 0.000686627 0.000686627 0.000686377 0.000686377 
        k : 9.2228e-05 9.2228e-05 0.000100285 0.000100285 
    Block 278 cell size :
        i : 1
        j : 0.000603332 0.000603332 0.000603889 0.000603889 
        k : 0.000104561 0.000104561 0.000110476 0.000110476 
    Block 279 cell size :
        i : 1
        j : 0.00077947 0.00077947 0.000779333 0.000779333 
        k : 0.000100285 0.000100285 0.000110318 0.000110318 
    Block 280 cell size :
        i : 1
        j : 0.000577159 0.000577159 0.000579411 0.000579411 
        k : 2.62488e-05 2.62488e-05 2.66271e-05 2.66271e-05 
    Block 281 cell size :
        i : 1
        j : 0.000594544 0.000594544 0.000598506 0.000598506 
        k : 2.9e-05 2.9e-05 2.62488e-05 2.62488e-05 
    Block 282 cell size :
        i : 1
        j : 0.000613913 0.000613913 0.000618865 0.000618865 
        k : 3.28024e-05 3.28024e-05 2.9e-05 2.9e-05 
    Block 283 cell size :
        i : 1
        j : 8.65794e-05 8.65794e-05 9.47629e-05 9.47629e-05 
        k : 0.000770019 0.000770019 0.000770565 0.000770565 
    Block 284 cell size :
        i : 1
        j : 8.8278e-05 8.8278e-05 9.44299e-05 9.44299e-05 
        k : 0.000595068 0.000595068 0.000595968 0.000595968 
    Block 285 cell size :
        i : 1
        j : 9.44299e-05 9.44299e-05 0.000103586 0.000103586 
        k : 0.000676606 0.000676606 0.000676903 0.000676903 
    Block 286 cell size :
        i : 1
        j : 0.00010008 0.00010008 0.000106231 0.000106231 
        k : 0.000560544 0.000560544 0.000562428 0.000562428 
    Block 287 cell size :
        i : 1
        j : 0.000112147 0.000112147 0.000126151 0.000126151 
        k : 0.00129221 0.00129221 0.00129087 0.00129087 
    Block 288 cell size :
        i : 1
        j : 9.47629e-05 9.47629e-05 0.000106921 0.000106921 
        k : 0.000878632 0.000878632 0.000878427 0.000878427 
    Block 289 cell size :
        i : 1
        j : 0.000106921 0.000106921 0.000120071 0.000120071 
        k : 0.00100002 0.00100002 0.000999616 0.000999616 
    Block 290 cell size :
        i : 1
        j : 0.000120071 0.000120071 0.000135204 0.000135204 
        k : 0.00113418 0.00113418 0.00113343 0.00113343 
    Block 291 cell size :
        i : 1
        j : 0.000721153 0.000721153 0.000721821 0.000721821 
        k : 3.14006e-05 3.14006e-05 3.63456e-05 3.63456e-05 
    Block 292 cell size :
        i : 1
        j : 0.000636051 0.000636051 0.000635444 0.000635444 
        k : 3.42345e-05 3.42345e-05 3.73363e-05 3.73363e-05 
    Block 293 cell size :
        i : 1
        j : 0.000561135 0.000561135 0.000560515 0.000560515 
        k : 3.73363e-05 3.73363e-05 4.04475e-05 4.04475e-05 
    Block 294 cell size :
        i : 1
        j : 4.44072e-05 4.44072e-05 4.34166e-05 4.34166e-05 
        k : 0.000132004 0.000132004 0.000194201 0.000194201 
    Block 295 cell size :
        i : 1
        j : 0.000384302 0.000384302 0.000383648 0.000383648 
        k : 5.03587e-05 5.03587e-05 5.34603e-05 5.34603e-05 
    Block 296 cell size :
        i : 1
        j : 6.0531e-05 6.0531e-05 5.96825e-05 5.96825e-05 
        k : 0.000254008 0.000254008 0.000339803 0.000339803 
    Block 297 cell size :
        i : 1
        j : 0.000820142 0.000820142 0.000820543 0.000820543 
        k : 3.63456e-05 3.63456e-05 3.93192e-05 3.93192e-05 
    Block 298 cell size :
        i : 1
        j : 0.000103942 0.000103942 9.717e-05 9.717e-05 
        k : 0.00051578 0.00051578 0.000528784 0.000528784 
    Block 299 cell size :
        i : 1
        j : 0.000113217 0.000113217 0.000182888 0.000182888 
        k : 9.92018e-05 9.92018e-05 7.17008e-05 7.17008e-05 
    Block 300 cell size :
        i : 1
        j : 0.000119202 0.000119202 0.000103942 0.000103942 
        k : 0.000486236 0.000486236 0.000506685 0.000506685 
    Block 301 cell size :
        i : 1
        j : 0.000575312 0.000575312 0.000576439 0.000576439 
        k : 2.7313e-05 2.7313e-05 2.78568e-05 2.78568e-05 
    Block 302 cell size :
        i : 1
        j : 0.000575312 0.000575312 0.000576303 0.000576303 
        k : 2.78568e-05 2.78568e-05 2.75136e-05 2.75136e-05 
    Block 303 cell size :
        i : 1
        j : 0.000572205 0.000572205 0.000574321 0.000574321 
        k : 3.3121e-05 3.3121e-05 3.31059e-05 3.31059e-05 
    Block 304 cell size :
        i : 1
        j : 0.00057293 0.00057293 0.000575177 0.000575177 
        k : 3.245e-05 3.245e-05 3.3121e-05 3.3121e-05 
    Block 305 cell size :
        i : 1
        j : 0.00055903 0.00055903 0.000562374 0.000562374 
        k : 5.26972e-05 5.26972e-05 5.37122e-05 5.37122e-05 
    Block 306 cell size :
        i : 1
        j : 0.000555932 0.000555932 0.000561135 0.000561135 
        k : 6.53682e-05 6.53682e-05 6.48845e-05 6.48845e-05 
    Block 307 cell size :
        i : 1
        j : 0.000561763 0.000561763 0.000563877 0.000563877 
        k : 9.60469e-05 9.60469e-05 9.65401e-05 9.65401e-05 
    Block 308 cell size :
        i : 1
        j : 0.000556676 0.000556676 0.000559651 0.000559651 
        k : 8.04114e-05 8.04114e-05 7.93788e-05 7.93788e-05 
    Block 309 cell size :
        i : 1
        j : 0.000553073 0.000553073 0.000558405 0.000558405 
        k : 7.96241e-05 7.96241e-05 8.04114e-05 8.04114e-05 
    Block 310 cell size :
        i : 1
        j : 0.000557929 0.000557929 0.000561036 0.000561036 
        k : 9.58801e-05 9.58801e-05 9.60469e-05 9.60469e-05 
    Block 311 cell size :
        i : 1
        j : 0.000555815 0.000555815 0.00055892 0.00055892 
        k : 9.58175e-05 9.58175e-05 9.58801e-05 9.58801e-05 
    Block 312 cell size :
        i : 1
        j : 0.000556173 0.000556173 0.000560515 0.000560515 
        k : 5.26308e-05 5.26308e-05 5.26972e-05 5.26972e-05 
    Block 313 cell size :
        i : 1
        j : 0.000555815 0.000555815 0.000561036 0.000561036 
        k : 4.6669e-05 4.6669e-05 4.48219e-05 4.48219e-05 
    Block 314 cell size :
        i : 1
        j : 2.61725e-05 2.61725e-05 2.63059e-05 2.63059e-05 
        k : 3e-05 3e-05 6.78012e-05 6.78012e-05 
    Block 315 cell size :
        i : 1
        j : 4.42041e-05 4.42041e-05 3.2249e-05 3.2249e-05 
        k : 0.000337291 0.000337291 0.000368409 0.000368409 
    Block 316 cell size :
        i : 1
        j : 0.000545322 0.000545322 0.000554374 0.000554374 
        k : 5.28015e-05 5.28015e-05 4.6669e-05 4.6669e-05 
    Block 317 cell size :
        i : 1
        j : 2.61725e-05 2.61725e-05 2.82843e-05 2.82843e-05 
        k : 0.000384251 0.000384251 0.000384949 0.000384949 
    Block 318 cell size :
        i : 1
        j : 0.000126151 0.000126151 0.000137321 0.000137321 
        k : 0.00146414 0.00146414 0.00146434 0.00146434 
    Block 319 cell size :
        i : 1
        j : 0.000137321 0.000137321 0.000147363 0.000147363 
        k : 0.00166755 0.00166755 0.001667 0.001667 
    Block 320 cell size :
        i : 1
        j : 0.00101002 0.00101002 0.00101016 0.00101016 
        k : 0.000103247 0.000103247 0.000115261 0.000115261 
    Block 321 cell size :
        i : 1
        j : 0.00114473 0.00114473 0.00114499 0.00114499 
        k : 0.000115261 0.000115261 0.000128269 0.000128269 
    Block 322 cell size :
        i : 1
        j : 0.00148011 0.00148011 0.00147939 0.00147939 
        k : 0.000117098 0.000117098 0.000128269 0.000128269 
    Block 323 cell size :
        i : 1
        j : 0.000147363 0.000147363 0.000150336 0.000150336 
        k : 0.00188784 0.00188784 0.00188741 0.00188741 
    Block 324 cell size :
        i : 1
        j : 0.00168135 0.00168135 0.00168154 0.00168154 
        k : 0.000128269 0.000128269 0.000138311 0.000138311 
    Block 325 cell size :
        i : 1
        j : 0.00191026
        k : 0.000138311 0.000138311 0.000146373 0.000146373 
    Block 326 cell size :
        i : 1
        j : 0.00203494 0.00203494 0.00203481 0.00203481 
        k : 0.000151327 0.000151327 0.000150336 0.000150336 
    Block 327 cell size :
        i : 1
        j : 0.0021034 0.0021034 0.00210405 0.00210405 
        k : 0.000146373 0.000146373 0.000151327 0.000151327 
    Block 328 cell size :
        i : 1
        j : 0.00130311 0.00130311 0.00130244 0.00130244 
        k : 0.000128269 0.000128269 0.000141421 0.000141421 
    Block 329 cell size :
        i : 1
        j : 0.000887384 0.000887384 0.000887435 0.000887435 
        k : 0.000110318 0.000110318 0.000123321 0.000123321 
    Block 330 cell size :
        i : 1
        j : 0.000686896 0.000686896 0.000686627 0.000686627 
        k : 0.000110476 0.000110476 0.00011952 0.00011952 
    Block 331 cell size :
        i : 1
        j : 0.000779542 0.000779542 0.00077947 0.00077947 
        k : 0.00011952 0.00011952 0.000132518 0.000132518 
    Block 332 cell size :
        i : 1
        j : 0.0710739 0.0710739 0.085928 0.085928 
        k : 0.0774418 0.0774418 0.14686 0.14686 
    Block 333 cell size :
        i : 1
        j : 0.000574913 0.000574913 0.000577159 0.000577159 
        k : 3.20156e-05 3.20156e-05 3.245e-05 3.245e-05 
    Block 334 cell size :
        i : 1
        j : 3.28024e-05 3.28024e-05 2.41868e-05 2.41868e-05 
        k : 0.000392869 0.000392869 0.000415924 0.000415924 
    Block 335 cell size :
        i : 1
        j : 0.000590445 0.000590445 0.000594544 0.000594544 
        k : 3.39411e-05 3.39411e-05 3.20156e-05 3.20156e-05 
    Block 336 cell size :
        i : 1
        j : 0.000606842 0.000606842 0.000613913 0.000613913 
        k : 3.86005e-05 3.86005e-05 3.39411e-05 3.39411e-05 
    Block 337 cell size :
        i : 1
        j : 0.000103586 0.000103586 0.000114856 0.000114856 
        k : 0.000769168 0.000769168 0.000770019 0.000770019 
    Block 338 cell size :
        i : 1
        j : 0.000106231 0.000106231 0.00011463 0.00011463 
        k : 0.000591683 0.000591683 0.000595068 0.000595068 
    Block 339 cell size :
        i : 1
        j : 0.00011463 0.00011463 0.000123794 0.000123794 
        k : 0.000676436 0.000676436 0.000676606 0.000676606 
    Block 340 cell size :
        i : 1
        j : 0.000135204 0.000135204 0.000149482 0.000149482 
        k : 0.00129174 0.00129174 0.00129221 0.00129221 
    Block 341 cell size :
        i : 1
        j : 0.000114856 0.000114856 0.000128004 0.000128004 
        k : 0.000879207 0.000879207 0.000878632 0.000878632 
    Block 342 cell size :
        i : 1
        j : 0.000128004 0.000128004 0.000144392 0.000144392 
        k : 0.000999254 0.000999254 0.00100002 0.00100002 
    Block 343 cell size :
        i : 1
        j : 0.000144392 0.000144392 0.000161505 0.000161505 
        k : 0.00113554 0.00113554 0.00113418 0.00113418 
    Block 344 cell size :
        i : 1
        j : 0.00072151 0.00072151 0.000721153 0.000721153 
        k : 3.73363e-05 3.73363e-05 4.24264e-05 4.24264e-05 
    Block 345 cell size :
        i : 1
        j : 0.000635442 0.000635442 0.000636051 0.000636051 
        k : 4.04475e-05 4.04475e-05 4.53982e-05 4.53982e-05 
    Block 346 cell size :
        i : 1
        j : 0.000560552 0.000560552 0.000561135 0.000561135 
        k : 4.34166e-05 4.34166e-05 4.83735e-05 4.83735e-05 
    Block 347 cell size :
        i : 1
        j : 5.34603e-05
        k : 0.000194201 0.000194201 0.000269804 0.000269804 
    Block 348 cell size :
        i : 1
        j : 0.000383885 0.000383885 0.000384302 0.000384302 
        k : 5.96825e-05 5.96825e-05 6.36396e-05 6.36396e-05 
    Block 349 cell size :
        i : 1
        j : 7.17008e-05 7.17008e-05 7.15681e-05 7.15681e-05 
        k : 0.000339803 0.000339803 0.000440405 0.000440405 
    Block 350 cell size :
        i : 1
        j : 0.000930168 0.000930168 0.000929715 0.000929715 
        k : 3.93192e-05 3.93192e-05 4.34166e-05 4.34166e-05 
    Block 351 cell size :
        i : 1
        j : 0.000820491 0.000820491 0.000820142 0.000820142 
        k : 4.24264e-05 4.24264e-05 4.75184e-05 4.75184e-05 
    Block 352 cell size :
        i : 1
        j : 3.08058e-05 3.08058e-05 0.000113217 0.000113217 
        k : 0.000119202 0.000119202 8.68332e-05 8.68332e-05 
    Block 353 cell size :
        i : 1
        j : 0.0774418 0.0774418 0.103267 0.103267 
        k : 0.072991 0.072991 0.08589 0.08589 
    Block 354 cell size :
        i : 1
        j : 0.072991 0.072991 0.0675939 0.0675939 
        k : 0.0710739 0.0710739 0.0875916 0.0875916 
    Block 355 cell size :
        i : 1
        j : 0.0784713 0.0784713 0.117658 0.117658 
        k : 0.0675939 0.0675939 0.052631 0.052631 
    Block 356 cell size :
        i : 1
        j : 2.31948e-05 2.31948e-05 2.72947e-05 2.72947e-05 
        k : 0.000560736 0.000560736 0.00056117 0.00056117 
    Block 357 cell size :
        i : 1
        j : 2.92746e-05 2.92746e-05 2.82843e-05 2.82843e-05 
        k : 3.34215e-05 3.34215e-05 7.42024e-05 7.42024e-05 
    Block 358 cell size :
        i : 1
        j : 0.000573331 0.000573331 0.000575312 0.000575312 
        k : 3.31059e-05 3.31059e-05 3.2311e-05 3.2311e-05 
    Block 359 cell size :
        i : 1
        j : 0.000573195 0.000573195 0.000575312 0.000575312 
        k : 3.2311e-05 3.2311e-05 3.2573e-05 3.2573e-05 
    Block 360 cell size :
        i : 1
        j : 0.000575312 0.000575312 0.000576439 0.000576439 
        k : 2.75136e-05 2.75136e-05 2.81603e-05 2.81603e-05 
    Block 361 cell size :
        i : 1
        j : 0.000570089 0.000570089 0.000572205 0.000572205 
        k : 3.98246e-05 3.98246e-05 3.98121e-05 3.98121e-05 
    Block 362 cell size :
        i : 1
        j : 0.000569696 0.000569696 0.00057293 0.00057293 
        k : 3.96611e-05 3.96611e-05 3.98246e-05 3.98246e-05 
    Block 363 cell size :
        i : 1
        j : 0.000555471 0.000555471 0.00055903 0.00055903 
        k : 6.26817e-05 6.26817e-05 6.53682e-05 6.53682e-05 
    Block 364 cell size :
        i : 1
        j : 0.00055249 0.00055249 0.000555932 0.000555932 
        k : 7.74145e-05 7.74145e-05 7.96241e-05 7.96241e-05 
    Block 365 cell size :
        i : 1
        j : 0.000551461 0.000551461 0.000556676 0.000556676 
        k : 9.56347e-05 9.56347e-05 9.58175e-05 9.58175e-05 
    Block 366 cell size :
        i : 1
        j : 0.000548745 0.000548745 0.000553073 0.000553073 
        k : 9.44299e-05 9.44299e-05 9.56347e-05 9.56347e-05 
    Block 367 cell size :
        i : 1
        j : 0.000549855 0.000549855 0.000556173 0.000556173 
        k : 6.38905e-05 6.38905e-05 6.26817e-05 6.26817e-05 
    Block 368 cell size :
        i : 1
        j : 0.000547622 0.000547622 0.000555815 0.000555815 
        k : 5.65862e-05 5.65862e-05 5.26308e-05 5.26308e-05 
    Block 369 cell size :
        i : 1
        j : 3.23883e-05 3.23883e-05 3.2249e-05 3.2249e-05 
        k : 6.78012e-05 6.78012e-05 0.000112801 0.000112801 
    Block 370 cell size :
        i : 1
        j : 5.28015e-05 5.28015e-05 3.73363e-05 3.73363e-05 
        k : 0.000299955 0.000299955 0.000337291 0.000337291 
    Block 371 cell size :
        i : 1
        j : 0.00053627 0.00053627 0.000545322 0.000545322 
        k : 6.28013e-05 6.28013e-05 5.65862e-05 5.65862e-05 
    Block 372 cell size :
        i : 1
        j : 3.23883e-05 3.23883e-05 3.43657e-05 3.43657e-05 
        k : 0.000384553 0.000384553 0.000384251 0.000384251 
    Block 373 cell size :
        i : 1
        j : 0.000149482 0.000149482 0.000165469 0.000165469 
        k : 0.00146588 0.00146588 0.00146414 0.00146414 
    Block 374 cell size :
        i : 1
        j : 0.000165469 0.000165469 0.000175647 0.000175647 
        k : 0.00166717 0.00166717 0.00166755 0.00166755 
    Block 375 cell size :
        i : 1
        j : 0.00101079 0.00101079 0.00101002 0.00101002 
        k : 0.000123321 0.000123321 0.000138452 0.000138452 
    Block 376 cell size :
        i : 1
        j : 0.00114546 0.00114546 0.00114473 0.00114473 
        k : 0.000138452 0.000138452 0.000153584 0.000153584 
    Block 377 cell size :
        i : 1
        j : 0.00147972 0.00147972 0.00148011 0.00148011 
        k : 0.000141421 0.000141421 0.000154434 0.000154434 
    Block 378 cell size :
        i : 1
        j : 0.000175647 0.000175647 0.000181728 0.000181728 
        k : 0.00188773 0.00188773 0.00188784 0.00188784 
    Block 379 cell size :
        i : 1
        j : 0.00168209 0.00168209 0.00168135 0.00168135 
        k : 0.000154434 0.000154434 0.000165605 0.000165605 
    Block 380 cell size :
        i : 1
        j : 0.00191018 0.00191018 0.00191026 0.00191026 
        k : 0.000165605 0.000165605 0.000174657 0.000174657 
    Block 381 cell size :
        i : 1
        j : 0.00203481 0.00203481 0.00203494 0.00203494 
        k : 0.000180737 0.000180737 0.000181728 0.000181728 
    Block 382 cell size :
        i : 1
        j : 0.00210363 0.00210363 0.0021034 0.0021034 
        k : 0.000174657 0.000174657 0.000180737 0.000180737 
    Block 383 cell size :
        i : 1
        j : 0.00130365 0.00130365 0.00130311 0.00130311 
        k : 0.000153584 0.000153584 0.000169706 0.000169706 
    Block 384 cell size :
        i : 1
        j : 0.000888408 0.000888408 0.000887384 0.000887384 
        k : 0.000132518 0.000132518 0.000147648 0.000147648 
    Block 385 cell size :
        i : 1
        j : 0.092215 0.092215 0.085881 0.085881 
        k : 0.0955243 0.0955243 0.113687 0.113687 
    Block 386 cell size :
        i : 1
        j : 0.0517487 0.0517487 0.0826952 0.0826952 
        k : 0.0502241 0.0502241 0.083767 0.083767 
    Block 387 cell size :
        i : 1
        j : 0.0641281 0.0641281 0.052632 0.052632 
        k : 0.0944076 0.0944076 0.117658 0.117658 
    Block 388 cell size :
        i : 1
        j : 0.105702 0.105702 0.0641281 0.0641281 
        k : 0.0762939 0.0762939 0.14686 0.14686 
    Block 389 cell size :
        i : 1
        j : 0.0789073 0.0789073 0.085937 0.085937 
        k : 0.0959184 0.0959184 0.0955243 0.0955243 
    Block 390 cell size :
        i : 1
        j : 0.0393079 0.0393079 0.0708807 0.0708807 
        k : 0.0517487 0.0517487 0.052632 0.052632 
    Block 391 cell size :
        i : 1
        j : 0.0826952 0.0826952 0.0825236 0.0825236 
        k : 0.0565541 0.0565541 0.092215 0.092215 
    Block 392 cell size :
        i : 1
        j : 0.0502241 0.0502241 0.052631 0.052631 
        k : 0.0393079 0.0393079 0.0626565 0.0626565 
    Block 393 cell size :
        i : 1
        j : 0.000571553 0.000571553 0.000574913 0.000574913 
        k : 3.90512e-05 3.90512e-05 3.96611e-05 3.96611e-05 
    Block 394 cell size :
        i : 1
        j : 3.86005e-05 3.86005e-05 3.04138e-05 3.04138e-05 
        k : 0.000365016 0.000365016 0.000392869 0.000392869 
    Block 395 cell size :
        i : 1
        j : 0.000586212 0.000586212 0.000590445 0.000590445 
        k : 4.03113e-05 4.03113e-05 3.90512e-05 3.90512e-05 
    Block 396 cell size :
        i : 1
        j : 0.000599061 0.000599061 0.000606842 0.000606842 
        k : 4.70106e-05 4.70106e-05 4.03113e-05 4.03113e-05 
    Block 397 cell size :
        i : 1
        j : 2.41868e-05 2.41868e-05 2.72947e-05 2.72947e-05 
        k : 0.00038396 0.00038396 0.000384532 0.000384532 
    Block 398 cell size :
        i : 1
        j : 2.72947e-05 2.72947e-05 3.02655e-05 3.02655e-05 
        k : 0.000659589 0.000659589 0.000659173 0.000659173 
    Block 399 cell size :
        i : 1
        j : 0.000123794 0.000123794 0.000138051 0.000138051 
        k : 0.000769127 0.000769127 0.000769168 0.000769168 
    Block 400 cell size :
        i : 1
        j : 0.000161505 0.000161505 0.000180602 0.000180602 
        k : 0.00129339 0.00129339 0.00129174 0.00129174 
    Block 401 cell size :
        i : 1
        j : 0.000138051 0.000138051 0.000154302 0.000154302 
        k : 0.000879659 0.000879659 0.000879207 0.000879207 
    Block 402 cell size :
        i : 1
        j : 0.000154302 0.000154302 0.000173531 0.000173531 
        k : 0.0010004 0.0010004 0.000999254 0.000999254 
    Block 403 cell size :
        i : 1
        j : 0.000173531 0.000173531 0.000194743 0.000194743 
        k : 0.00113705 0.00113705 0.00113554 0.00113554 
    Block 404 cell size :
        i : 1
        j : 0.000721904 0.000721904 0.00072151 0.00072151 
        k : 4.53982e-05 4.53982e-05 5.04876e-05 5.04876e-05 
    Block 405 cell size :
        i : 1
        j : 0.000635755 0.000635755 0.000635442 0.000635442 
        k : 4.83735e-05 4.83735e-05 5.44518e-05 5.44518e-05 
    Block 406 cell size :
        i : 1
        j : 0.000561111 0.000561111 0.000560552 0.000560552 
        k : 5.34603e-05 5.34603e-05 5.75587e-05 5.75587e-05 
    Block 407 cell size :
        i : 1
        j : 6.36396e-05
        k : 0.000269804 0.000269804 0.000359803 0.000359803 
    Block 408 cell size :
        i : 1
        j : 0.000384419 0.000384419 0.000383885 0.000383885 
        k : 7.15681e-05 7.15681e-05 7.66551e-05 7.66551e-05 
    Block 409 cell size :
        i : 1
        j : 8.68332e-05
        k : 0.000440405 0.000440405 0.000563206 0.000563206 
    Block 410 cell size :
        i : 1
        j : 0.00105718 0.00105718 0.00105699 0.00105699 
        k : 4.34166e-05 4.34166e-05 4.94975e-05 4.94975e-05 
    Block 411 cell size :
        i : 1
        j : 0.000929394 0.000929394 0.000930168 0.000930168 
        k : 4.75184e-05 4.75184e-05 5.34603e-05 5.34603e-05 
    Block 412 cell size :
        i : 1
        j : 0.000819641 0.000819641 0.000820491 0.000820491 
        k : 5.04876e-05 5.04876e-05 5.74282e-05 5.74282e-05 
    Block 413 cell size :
        i : 1
        j : 0.0463716 0.0463716 0.0784713 0.0784713 
        k : 0.0561993 0.0561993 0.052632 0.052632 
    Block 414 cell size :
        i : 1
        j : 0.0561993 0.0561993 0.0845173 0.0845173 
        k : 0.0507733 0.0507733 0.0875916 0.0875916 
    Block 415 cell size :
        i : 1
        j : 0.0883644 0.0883644 0.085852 0.085852 
        k : 0.0915235 0.0915235 0.103267 0.103267 
    Block 416 cell size :
        i : 1
        j : 0.0494669 0.0494669 0.0477772 0.0477772 
        k : 0.0487042 0.0487042 0.052632 0.052632 
    Block 417 cell size :
        i : 1
        j : 0.0494669 0.0494669 0.0549545 0.0549545 
        k : 0.052631 0.052631 0.0472355 0.0472355 
    Block 418 cell size :
        i : 1
        j : 2.72947e-05 2.72947e-05 3.04138e-05 3.04138e-05 
        k : 0.000635406 0.000635406 0.000635979 0.000635979 
    Block 419 cell size :
        i : 1
        j : 2.92746e-05 2.92746e-05 3.1257e-05 3.1257e-05 
        k : 0.000561025 0.000561025 0.000560736 0.000560736 
    Block 420 cell size :
        i : 1
        j : 3.43657e-05
        k : 7.42024e-05 7.42024e-05 0.000122801 0.000122801 
    Block 421 cell size :
        i : 1
        j : 0.000570223 0.000570223 0.000573331 0.000573331 
        k : 3.98121e-05 3.98121e-05 3.95601e-05 3.95601e-05 
    Block 422 cell size :
        i : 1
        j : 0.000572071 0.000572071 0.000573195 0.000573195 
        k : 3.95601e-05 3.95601e-05 4.01622e-05 4.01622e-05 
    Block 423 cell size :
        i : 1
        j : 0.000575044 0.000575044 0.000575312 0.000575312 
        k : 3.2573e-05 3.2573e-05 3.44819e-05 3.44819e-05 
    Block 424 cell size :
        i : 1
        j : 0.000576168 0.000576168 0.000576439 0.000576439 
        k : 2.81603e-05 2.81603e-05 3.00832e-05 3.00832e-05 
    Block 425 cell size :
        i : 1
        j : 0.00056586 0.00056586 0.000570089 0.000570089 
        k : 4.70106e-05
    Block 426 cell size :
        i : 1
        j : 0.000566467 0.000566467 0.000569696 0.000569696 
        k : 4.68722e-05 4.68722e-05 4.70106e-05 4.70106e-05 
    Block 427 cell size :
        i : 1
        j : 0.000549072 0.000549072 0.000555471 0.000555471 
        k : 7.71038e-05 7.71038e-05 7.74145e-05 7.74145e-05 
    Block 428 cell size :
        i : 1
        j : 0.000545984 0.000545984 0.00055249 0.00055249 
        k : 9.26607e-05 9.26607e-05 9.44299e-05 9.44299e-05 
    Block 429 cell size :
        i : 1
        j : 0.000543323 0.000543323 0.000549855 0.000549855 
        k : 7.66942e-05 7.66942e-05 7.71038e-05 7.71038e-05 
    Block 430 cell size :
        i : 1
        j : 0.000540423 0.000540423 0.000547622 0.000547622 
        k : 6.71789e-05 6.71789e-05 6.38905e-05 6.38905e-05 
    Block 431 cell size :
        i : 1
        j : 3.73363e-05
        k : 0.000112801 0.000112801 0.000165602 0.000165602 
    Block 432 cell size :
        i : 1
        j : 6.28013e-05 6.28013e-05 4.55412e-05 4.55412e-05 
        k : 0.000254702 0.000254702 0.000299955 0.000299955 
    Block 433 cell size :
        i : 1
        j : 0.000523259 0.000523259 0.00053627 0.00053627 
        k : 7.64003e-05 7.64003e-05 6.71789e-05 6.71789e-05 
    Block 434 cell size :
        i : 1
        j : 3.73363e-05 3.73363e-05 4.14367e-05 4.14367e-05 
        k : 0.0003842 0.0003842 0.000384553 0.000384553 
    Block 435 cell size :
        i : 1
        j : 0.000180602 0.000180602 0.000197851 0.000197851 
        k : 0.00146602 0.00146602 0.00146588 0.00146588 
    Block 436 cell size :
        i : 1
        j : 0.000197851 0.000197851 0.000211002 0.000211002 
        k : 0.00166736 0.00166736 0.00166717 0.00166717 
    Block 437 cell size :
        i : 1
        j : 0.00101161 0.00101161 0.00101079 0.00101079 
        k : 0.000147648 0.000147648 0.000165747 0.000165747 
    Block 438 cell size :
        i : 1
        j : 0.00114614 0.00114614 0.00114546 0.00114546 
        k : 0.000165747 0.000165747 0.000184838 0.000184838 
    Block 439 cell size :
        i : 1
        j : 0.00148026 0.00148026 0.00147972 0.00147972 
        k : 0.000169706 0.000169706 0.000184838 0.000184838 
    Block 440 cell size :
        i : 1
        j : 0.000211002 0.000211002 0.000217083 0.000217083 
        k : 0.00188764 0.00188764 0.00188773 0.00188773 
    Block 441 cell size :
        i : 1
        j : 0.00168251 0.00168251 0.00168209 0.00168209 
        k : 0.000184838 0.000184838 0.00019997 0.00019997 
    Block 442 cell size :
        i : 1
        j : 0.00191091 0.00191091 0.00191018 0.00191018 
        k : 0.00019997 0.00019997 0.000211142 0.000211142 
    Block 443 cell size :
        i : 1
        j : 0.00203467 0.00203467 0.00203481 0.00203481 
        k : 0.000216093 0.000216093 0.000217083 0.000217083 
    Block 444 cell size :
        i : 1
        j : 0.00210301 0.00210301 0.00210363 0.00210363 
        k : 0.000211142 0.000211142 0.000216093 0.000216093 
    Block 445 cell size :
        i : 1
        j : 0.00130518 0.00130518 0.00130365 0.00130365 
        k : 0.000184838 0.000184838 0.000204071 0.000204071 
    Block 446 cell size :
        i : 1
        j : 0.085691 0.085691 0.0894854 0.0894854 
        k : 0.0944058 0.0944058 0.113687 0.113687 
    Block 447 cell size :
        i : 1
        j : 0.0530333 0.0530333 0.0894854 0.0894854 
        k : 0.083767 0.083767 0.0839784 0.0839784 
    Block 448 cell size :
        i : 1
        j : 0.0549545 0.0549545 0.0658834 0.0658834 
        k : 0.052632 0.052632 0.0510623 0.0510623 
    Block 449 cell size :
        i : 1
        j : 0.0680581 0.0680581 0.052632 0.052632 
        k : 0.0678724 0.0678724 0.0944076 0.0944076 
    Block 450 cell size :
        i : 1
        j : 0.059036 0.059036 0.085937 0.085937 
        k : 0.105702 0.105702 0.111527 0.111527 
    Block 451 cell size :
        i : 1
        j : 0.085937 0.085937 0.0836821 0.0836821 
        k : 0.0959184 0.0959184 0.111527 0.111527 
    Block 452 cell size :
        i : 1
        j : 0.0762939 0.0762939 0.0840384 0.0840384 
        k : 0.059036 0.059036 0.0680581 0.0680581 
    Block 453 cell size :
        i : 1
        j : 0.0643042 0.0643042 0.0789073 0.0789073 
        k : 0.0835708 0.0835708 0.0825236 0.0825236 
    Block 454 cell size :
        i : 1
        j : 0.052631 0.052631 0.0530333 0.0530333 
        k : 0.0708807 0.0708807 0.0749814 0.0749814 
    Block 455 cell size :
        i : 1
        j : 0.052632 0.052632 0.0498641 0.0498641 
        k : 0.0515463 0.0515463 0.054395 0.054395 
    Block 456 cell size :
        i : 1
        j : 0.0565541 0.0565541 0.052632 0.052632 
        k : 0.0626565 0.0626565 0.0721138 0.0721138 
    Block 457 cell size :
        i : 1
        j : 0.052631 0.052631 0.0504646 0.0504646 
        k : 0.054395 0.054395 0.0590251 0.0590251 
    Block 458 cell size :
        i : 1
        j : 3.42053e-05 3.42053e-05 7.7801e-05 7.7801e-05 
        k : 3.04138e-05 3.04138e-05 3.02655e-05 3.02655e-05 
    Block 459 cell size :
        i : 1
        j : 0.000567212 0.000567212 0.000571553 0.000571553 
        k : 4.68615e-05 4.68615e-05 4.68722e-05 4.68722e-05 
    Block 460 cell size :
        i : 1
        j : 4.70106e-05 4.70106e-05 3.52278e-05 3.52278e-05 
        k : 0.000332096 0.000332096 0.000365016 0.000365016 
    Block 461 cell size :
        i : 1
        j : 0.000580001 0.000580001 0.000586212 0.000586212 
        k : 4.95177e-05 4.95177e-05 4.68615e-05 4.68615e-05 
    Block 462 cell size :
        i : 1
        j : 0.000590153 0.000590153 0.000599061 0.000599061 
        k : 5.64004e-05 5.64004e-05 4.95177e-05 4.95177e-05 
    Block 463 cell size :
        i : 1
        j : 3.02655e-05 3.02655e-05 3.42345e-05 3.42345e-05 
        k : 0.000747553 0.000747553 0.000746997 0.000746997 
    Block 464 cell size :
        i : 1
        j : 3.02655e-05 3.02655e-05 3.32415e-05 3.32415e-05 
        k : 0.000384401 0.000384401 0.00038396 0.00038396 
    Block 465 cell size :
        i : 1
        j : 3.23883e-05 3.23883e-05 3.63456e-05 3.63456e-05 
        k : 0.000660165 0.000660165 0.000659589 0.000659589 
    Block 466 cell size :
        i : 1
        j : 3.86005e-05 3.86005e-05 8.42021e-05 8.42021e-05 
        k : 3.32415e-05 3.32415e-05 3.23883e-05 3.23883e-05 
    Block 467 cell size :
        i : 1
        j : 0.000194743 0.000194743 0.000216093 0.000216093 
        k : 0.00129378 0.00129378 0.00129339 0.00129339 
    Block 468 cell size :
        i : 1
        j : 0.000722117 0.000722117 0.000721904 0.000721904 
        k : 5.44518e-05 5.44518e-05 6.15224e-05 6.15224e-05 
    Block 469 cell size :
        i : 1
        j : 0.000635932 0.000635932 0.000635755 0.000635755 
        k : 5.75587e-05 5.75587e-05 6.56201e-05 6.56201e-05 
    Block 470 cell size :
        i : 1
        j : 0.000561507 0.000561507 0.000561111 0.000561111 
        k : 6.36396e-05 6.36396e-05 6.97209e-05 6.97209e-05 
    Block 471 cell size :
        i : 1
        j : 7.66551e-05
        k : 0.000359803 0.000359803 0.000468207 0.000468207 
    Block 472 cell size :
        i : 1
        j : 0.000385019 0.000385019 0.000384419 0.000384419 
        k : 8.68332e-05 8.68332e-05 9.19239e-05 9.19239e-05 
    Block 473 cell size :
        i : 1
        j : 0.00119958 0.00119958 0.00119913 0.00119913 
        k : 4.94975e-05 4.94975e-05 5.36004e-05 5.36004e-05 
    Block 474 cell size :
        i : 1
        j : 0.00105752 0.00105752 0.00105718 0.00105718 
        k : 5.34603e-05 5.34603e-05 5.85491e-05 5.85491e-05 
    Block 475 cell size :
        i : 1
        j : 0.000930643 0.000930643 0.000929394 0.000929394 
        k : 5.74282e-05 5.74282e-05 6.36396e-05 6.36396e-05 
    Block 476 cell size :
        i : 1
        j : 0.000820839 0.000820839 0.000819641 0.000819641 
        k : 6.15224e-05 6.15224e-05 6.87314e-05 6.87314e-05 
    Block 477 cell size :
        i : 1
        j : 0.0477772 0.0477772 0.0477988 0.0477988 
        k : 0.0498943 0.0498943 0.052631 0.052631 
    Block 478 cell size :
        i : 1
        j : 0.0507733 0.0507733 0.052631 0.052631 
        k : 0.0463716 0.0463716 0.0708261 0.0708261 
    Block 479 cell size :
        i : 1
        j : 0.0845173 0.0845173 0.0832286 0.0832286 
        k : 0.0561497 0.0561497 0.0883644 0.0883644 
    Block 480 cell size :
        i : 1
        j : 0.0812329 0.0812329 0.085918 0.085918 
        k : 0.0889825 0.0889825 0.0915235 0.0915235 
    Block 481 cell size :
        i : 1
        j : 0.0455806 0.0455806 0.0463834 0.0463834 
        k : 0.0457873 0.0457873 0.0498943 0.0498943 
    Block 482 cell size :
        i : 1
        j : 0.0478814 0.0478814 0.0455806 0.0455806 
        k : 0.0461321 0.0461321 0.0487042 0.0487042 
    Block 483 cell size :
        i : 1
        j : 0.0428971 0.0428971 0.0478814 0.0478814 
        k : 0.0398079 0.0398079 0.0472355 0.0472355 
    Block 484 cell size :
        i : 1
        j : 3.42345e-05 3.42345e-05 3.93192e-05 3.93192e-05 
        k : 0.00084966 0.00084966 0.000849953 0.000849953 
    Block 485 cell size :
        i : 1
        j : 3.04138e-05 3.04138e-05 3.32415e-05 3.32415e-05 
        k : 0.000722239 0.000722239 0.000720831 0.000720831 
    Block 486 cell size :
        i : 1
        j : 3.1257e-05 3.1257e-05 3.52278e-05 3.52278e-05 
        k : 0.000635985 0.000635985 0.000635406 0.000635406 
    Block 487 cell size :
        i : 1
        j : 3.43657e-05 3.43657e-05 3.83275e-05 3.83275e-05 
        k : 0.000561624 0.000561624 0.000561025 0.000561025 
    Block 488 cell size :
        i : 1
        j : 4.14367e-05
        k : 0.000122801 0.000122801 0.0001814 0.0001814 
    Block 489 cell size :
        i : 1
        j : 0.000568241 0.000568241 0.000570223 0.000570223 
        k : 4.70106e-05 4.70106e-05 4.62385e-05 4.62385e-05 
    Block 490 cell size :
        i : 1
        j : 0.000569825 0.000569825 0.000572071 0.000572071 
        k : 4.62385e-05 4.62385e-05 4.74342e-05 4.74342e-05 
    Block 491 cell size :
        i : 1
        j : 0.00057293 0.00057293 0.000575044 0.000575044 
        k : 4.01622e-05 4.01622e-05 4.05216e-05 4.05216e-05 
    Block 492 cell size :
        i : 1
        j : 0.000575044 0.000575044 0.000576168 0.000576168 
        k : 3.44819e-05 3.44819e-05 3.5171e-05 3.5171e-05 
    Block 493 cell size :
        i : 1
        j : 0.000616478 0.000616478 0.000617738 0.000617738 
        k : 3.00832e-05 3.00832e-05 3.17805e-05 3.17805e-05 
    Block 494 cell size :
        i : 1
        j : 0.000561763 0.000561763 0.00056586 0.00056586 
        k : 5.73062e-05 5.73062e-05 5.63649e-05 5.63649e-05 
    Block 495 cell size :
        i : 1
        j : 0.000562008 0.000562008 0.000566467 0.000566467 
        k : 5.60357e-05 5.60357e-05 5.73062e-05 5.73062e-05 
    Block 496 cell size :
        i : 1
        j : 0.00054359 0.00054359 0.000549072 0.000549072 
        k : 9.09725e-05 9.09725e-05 9.26607e-05 9.26607e-05 
    Block 497 cell size :
        i : 1
        j : 0.000534835 0.000534835 0.000543323 0.000543323 
[...]
        k : 0.000768833 0.000768833 0.000890248 0.000890248 
    Block 15282 cell size :
        i : 1
        j : 0.000714888 0.000714888 0 0 
        k : 0.000766525 0.000766525 0.000799518 0.000799518 
    Block 15283 cell size :
        i : 1
        j : 0.000613649 0.000613649 0 0 
        k : 0.000510343 0.000510343 0.000624039 0.000624039 
    Block 15284 cell size :
        i : 1
        j : 0.000624039 0.000624039 0 0 
        k : 0.000678565 0.000678565 0.000831087 0.000831087 
    Block 15285 cell size :
        i : 1
        j : 0.000611806 0.000611806 0 0 
        k : 0.000626355 0.000626355 0.000633581 0.000633581 
    Block 15286 cell size :
        i : 1
        j : 0.000510343 0.000510343 0 0 
        k : 0.000633581 0.000633581 0.000729044 0.000729044 
    Block 15287 cell size :
        i : 1
        j : 0.000640279 0.000640279 0 0 
        k : 0.000665019 0.000665019 0.000747741 0.000747741 
    Block 15288 cell size :
        i : 1
        j : 0.000646681 0.000646681 0 0 
        k : 0.000626355 0.000626355 0.000747741 0.000747741 
    Block 15289 cell size :
        i : 1
        j : 0.000711512 0.000711512 0 0 
        k : 0.000638047 0.000638047 0.000725751 0.000725751 
    Block 15290 cell size :
        i : 1
        j : 0.000532353 0.000532353 0 0 
        k : 0.000665019 0.000665019 0.000711512 0.000711512 
    Block 15291 cell size :
        i : 1
        j : 0.00062639 0.00062639 0 0 
        k : 0.000628676 0.000628676 0.000791253 0.000791253 
    Block 15292 cell size :
        i : 1
        j : 0.00062639 0.00062639 0 0 
        k : 0.000546715 0.000546715 0.000725751 0.000725751 
    Block 15293 cell size :
        i : 1
        j : 0.000345358 0.000345358 0 0 
        k : 0.000708154 0.000708154 0.000876261 0.000876261 
    Block 15294 cell size :
        i : 1
        j : 0.000345358 0.000345358 0 0 
        k : 0.000620746 0.000620746 0.000791253 0.000791253 
    Block 15295 cell size :
        i : 1
        j : 0.000720056 0.000720056 0 0 
        k : 0.000714888 0.000714888 0.000809088 0.000809088 
    Block 15296 cell size :
        i : 1
        j : 0.000577609 0.000577609 0 0 
        k : 0.000645713 0.000645713 0.000720056 0.000720056 
    Block 15297 cell size :
        i : 1
        j : 0.000583304 0.000583304 0 0 
        k : 0.000554667 0.000554667 0.000638501 0.000638501 
    Block 15298 cell size :
        i : 1
        j : 0.000538015 0.000538015 0 0 
        k : 0.000510784 0.000510784 0.000554667 0.000554667 
    Block 15299 cell size :
        i : 1
        j : 0.000577609 0.000577609 0 0 
        k : 0.000733674 0.000733674 0.000779162 0.000779162 
    Block 15300 cell size :
        i : 1
        j : 0.000779162 0.000779162 0 0 
        k : 0.000545297 0.000545297 0.000814666 0.000814666 
    Block 15301 cell size :
        i : 1
        j : 0.000583304 0.000583304 0 0 
        k : 0.000545297 0.000545297 0.000592008 0.000592008 
    Block 15302 cell size :
        i : 1
        j : 0.000467107 0.000467107 0 0 
        k : 0.000439005 0.000439005 0.000538015 0.000538015 
    Block 15303 cell size :
        i : 1
        j : 0.000439005 0.000439005 0 0 
        k : 0.000424199 0.000424199 0.00065625 0.00065625 
    Block 15304 cell size :
        i : 1
        j : 0.000406007 0.000406007 0 0 
        k : 0.00065625 0.00065625 0.000736697 0.000736697 
    Block 15305 cell size :
        i : 1
        j : 0.000297513 0.000297513 0 0 
        k : 0.000714291 0.000714291 0.000736697 0.000736697 
    Block 15306 cell size :
        i : 1
        j : 0.0002133 0.0002133 0 0 
        k : 0.000714291 0.000714291 0.0007836 0.0007836 
    Block 15307 cell size :
        i : 1
        j : 0.000341252 0.000341252 0 0 
        k : 0.000558206 0.000558206 0.0007836 0.0007836 
    Block 15308 cell size :
        i : 1
        j : 3.22025e-05 3.22025e-05 0 0 
        k : 0.000341252 0.000341252 0.000360111 0.000360111 
    Block 15309 cell size :
        i : 1
        j : 0.000462871 0.000462871 0 0 
        k : 0.000592014 0.000592014 0.000678565 0.000678565 
    Block 15310 cell size :
        i : 1
        j : 0.000592014 0.000592014 0 0 
        k : 0.000474806 0.000474806 0.000682625 0.000682625 
    Block 15311 cell size :
        i : 1
        j : 0.000682625 0.000682625 0 0 
        k : 0.00070867 0.00070867 0.000713309 0.000713309 
    Block 15312 cell size :
        i : 1
        j : 0.000596257 0.000596257 0 0 
        k : 0.000699283 0.000699283 0.00070867 0.00070867 
    Block 15313 cell size :
        i : 1
        j : 0.000699283 0.000699283 0 0 
        k : 0.000772842 0.000772842 0.000867005 0.000867005 
    Block 15314 cell size :
        i : 1
        j : 0.000528266 0.000528266 0 0 
        k : 0.000658513 0.000658513 0.000772842 0.000772842 
    Block 15315 cell size :
        i : 1
        j : 0.000658513 0.000658513 0 0 
        k : 0.00056456 0.00056456 0.000756719 0.000756719 
    Block 15316 cell size :
        i : 1
        j : 0.000756719 0.000756719 0 0 
        k : 0.000670792 0.000670792 0.000893444 0.000893444 
    Block 15317 cell size :
        i : 1
        j : 0.000670792 0.000670792 0 0 
        k : 0.000556227 0.000556227 0.00074742 0.00074742 
    Block 15318 cell size :
        i : 1
        j : 0.00074742 0.00074742 0 0 
        k : 0.000503227 0.000503227 0.000809088 0.000809088 
    Block 15319 cell size :
        i : 1
        j : 0.000729044 0.000729044 0 0 
        k : 0.000502001 0.000502001 0.000732912 0.000732912 
    Block 15320 cell size :
        i : 1
        j : 0.000632463 0.000632463 0 0 
        k : 0.000462871 0.000462871 0.000732912 0.000732912 
    Block 15321 cell size :
        i : 1
        j : 0.000646681 0.000646681 0 0 
        k : 0.000524023 0.000524023 0.000669008 0.000669008 
    Block 15322 cell size :
        i : 1
        j : 0.000502001 0.000502001 0 0 
        k : 0.000669008 0.000669008 0.000681091 0.000681091 
    Block 15323 cell size :
        i : 1
        j : 0.000615872 0.000615872 0 0 
        k : 0.000532353 0.000532353 0.00062723 0.00062723 
    Block 15324 cell size :
        i : 1
        j : 0.000464226 0.000464226 0 0 
        k : 0.000524023 0.000524023 0.000615872 0.000615872 
    Block 15325 cell size :
        i : 1
        j : 0.000558412 0.000558412 0 0 
        k : 0.000546715 0.000546715 0.000687419 0.000687419 
    Block 15326 cell size :
        i : 1
        j : 0.000558412 0.000558412 0 0 
        k : 0.000479051 0.000479051 0.00062723 0.00062723 
    Block 15327 cell size :
        i : 1
        j : 0.000309298 0.000309298 0 0 
        k : 0.000620746 0.000620746 0.00076738 0.00076738 
    Block 15328 cell size :
        i : 1
        j : 0.000309298 0.000309298 0 0 
        k : 0.000540359 0.000540359 0.000687419 0.000687419 
    Block 15329 cell size :
        i : 1
        j : 0.000503227 0.000503227 0 0 
        k : 0.000572784 0.000572784 0.000656101 0.000656101 
    Block 15330 cell size :
        i : 1
        j : 0.000656101 0.000656101 0 0 
        k : 0.000617041 0.000617041 0.000733674 0.000733674 
    Block 15331 cell size :
        i : 1
        j : 0.000696363 0.000696363 0 0 
        k : 0.000617041 0.000617041 0.000711552 0.000711552 
    Block 15332 cell size :
        i : 1
        j : 0.000626582 0.000626582 0 0 
        k : 0.000592008 0.000592008 0.000696363 0.000696363 
    Block 15333 cell size :
        i : 1
        j : 0.00056369 0.00056369 0 0 
        k : 0.000467107 0.000467107 0.000626582 0.000626582 
    Block 15334 cell size :
        i : 1
        j : 0.000545815 0.000545815 0 0 
        k : 0.00050636 0.00050636 0.00056369 0.00056369 
    Block 15335 cell size :
        i : 1
        j : 0.000421684 0.000421684 0 0 
        k : 0.000424199 0.000424199 0.00050636 0.00050636 
    Block 15336 cell size :
        i : 1
        j : 0.000351639 0.000351639 0 0 
        k : 0.000337308 0.000337308 0.000421684 0.000421684 
    Block 15337 cell size :
        i : 1
        j : 0.000297513 0.000297513 0 0 
        k : 0.000337308 0.000337308 0.000426011 0.000426011 
    Block 15338 cell size :
        i : 1
        j : 0.000337214 0.000337214 0 0 
        k : 0.000194756 0.000194756 0.000426011 0.000426011 
    Block 15339 cell size :
        i : 1
        j : 0.000360111 0.000360111 0 0 
        k : 0.000194756 0.000194756 0.000480885 0.000480885 
    Block 15340 cell size :
        i : 1
        j : 0.00049496 0.00049496 0 0 
        k : 0.000630765 0.000630765 0.000632463 0.000632463 
    Block 15341 cell size :
        i : 1
        j : 0.000474806 0.000474806 0 0 
        k : 0.000630765 0.000630765 0.000674515 0.000674515 
    Block 15342 cell size :
        i : 1
        j : 0.000674515 0.000674515 0 0 
        k : 0.000568008 0.000568008 0.000762693 0.000762693 
    Block 15343 cell size :
        i : 1
        j : 0.00075386 0.00075386 0 0 
        k : 0.000596257 0.000596257 0.000762693 0.000762693 
    Block 15344 cell size :
        i : 1
        j : 0.000526821 0.000526821 0 0 
        k : 0.000712015 0.000712015 0.00075386 0.00075386 
    Block 15345 cell size :
        i : 1
        j : 0.000599633 0.000599633 0 0 
        k : 0.000528266 0.000528266 0.000712015 0.000712015 
    Block 15346 cell size :
        i : 1
        j : 0.000599633 0.000599633 0 0 
        k : 0.000584737 0.000584737 0.000629833 0.000629833 
    Block 15347 cell size :
        i : 1
        j : 0.00056456 0.00056456 0 0 
        k : 0.000629833 0.000629833 0.000676938 0.000676938 
    Block 15348 cell size :
        i : 1
        j : 0.000676938 0.000676938 0 0 
        k : 0.000537023 0.000537023 0.000754515 0.000754515 
    Block 15349 cell size :
        i : 1
        j : 0.000552883 0.000552883 0 0 
        k : 0.000556227 0.000556227 0.000754515 0.000754515 
    Block 15350 cell size :
        i : 1
        j : 0.000572784 0.000572784 0 0 
        k : 0.000552883 0.000552883 0.000577396 0.000577396 
    Block 15351 cell size :
        i : 1
        j : 0.000681091 0.000681091 0 0 
        k : 0.000660295 0.000660295 0.000693432 0.000693432 
    Block 15352 cell size :
        i : 1
        j : 0.000624225 0.000624225 0 0 
        k : 0.00049496 0.00049496 0.000693432 0.000693432 
    Block 15353 cell size :
        i : 1
        j : 0.000464226 0.000464226 0 0 
        k : 0.000568863 0.000568863 0.000578022 0.000578022 
    Block 15354 cell size :
        i : 1
        j : 0.000578022 0.000578022 0 0 
        k : 0.00050813 0.00050813 0.000660295 0.000660295 
    Block 15355 cell size :
        i : 1
        j : 0.000501519 0.000501519 0 0 
        k : 0.000479051 0.000479051 0.000605258 0.000605258 
    Block 15356 cell size :
        i : 1
        j : 0.000501519 0.000501519 0 0 
        k : 0.000466245 0.000466245 0.000568863 0.000568863 
    Block 15357 cell size :
        i : 1
        j : 0.00028297 0.00028297 0 0 
        k : 0.000540359 0.000540359 0.000673573 0.000673573 
    Block 15358 cell size :
        i : 1
        j : 0.00028297 0.00028297 0 0 
        k : 0.000477624 0.000477624 0.000605258 0.000605258 
    Block 15359 cell size :
        i : 1
        j : 0.000622832 0.000622832 0 0 
        k : 0.000577396 0.000577396 0.00063702 0.00063702 
    Block 15360 cell size :
        i : 1
        j : 0.000622832 0.000622832 0 0 
        k : 0.00064913 0.00064913 0.000711552 0.000711552 
    Block 15361 cell size :
        i : 1
        j : 0.000511423 0.000511423 0 0 
        k : 0.000605476 0.000605476 0.00064913 0.00064913 
    Block 15362 cell size :
        i : 1
        j : 0.000515248 0.000515248 0 0 
        k : 0.000545815 0.000545815 0.000605476 0.000605476 
    Block 15363 cell size :
        i : 1
        j : 0.000417019 0.000417019 0 0 
        k : 0.000417401 0.000417401 0.000515248 0.000515248 
    Block 15364 cell size :
        i : 1
        j : 0.000351639 0.000351639 0 0 
        k : 0.000417401 0.000417401 0.000443254 0.000443254 
    Block 15365 cell size :
        i : 1
        j : 0.00030691 0.00030691 0 0 
        k : 0.00029417 0.00029417 0.000443254 0.000443254 
    Block 15366 cell size :
        i : 1
        j : 0.000337214 0.000337214 0 0 
        k : 0.00029417 0.00029417 0.000512762 0.000512762 
    Block 15367 cell size :
        i : 1
        j : 0.000624225 0.000624225 0 0 
        k : 0.000503918 0.000503918 0.000669425 0.000669425 
    Block 15368 cell size :
        i : 1
        j : 0.000568335 0.000568335 0 0 
        k : 0.000568008 0.000568008 0.000669425 0.000669425 
    Block 15369 cell size :
        i : 1
        j : 0.000568335 0.000568335 0 0 
        k : 0.000530363 0.000530363 0.000681589 0.000681589 
    Block 15370 cell size :
        i : 1
        j : 0.000526821 0.000526821 0 0 
        k : 0.000681589 0.000681589 0.000694677 0.000694677 
    Block 15371 cell size :
        i : 1
        j : 0.000694677 0.000694677 0 0 
        k : 0.000577848 0.000577848 0.000722897 0.000722897 
    Block 15372 cell size :
        i : 1
        j : 0.000681294 0.000681294 0 0 
        k : 0.000584737 0.000584737 0.000722897 0.000722897 
    Block 15373 cell size :
        i : 1
        j : 0.000555407 0.000555407 0 0 
        k : 0.000643099 0.000643099 0.000681294 0.000681294 
    Block 15374 cell size :
        i : 1
        j : 0.000556642 0.000556642 0 0 
        k : 0.000537023 0.000537023 0.000643099 0.000643099 
    Block 15375 cell size :
        i : 1
        j : 0.000556642 0.000556642 0 0 
        k : 0.000581821 0.000581821 0.00063702 0.00063702 
    Block 15376 cell size :
        i : 1
        j : 0.000557897 0.000557897 0 0 
        k : 0.00050813 0.00050813 0.000579086 0.000579086 
    Block 15377 cell size :
        i : 1
        j : 0.000539735 0.000539735 0 0 
        k : 0.000503918 0.000503918 0.000557897 0.000557897 
    Block 15378 cell size :
        i : 1
        j : 0.000517672 0.000517672 0 0 
        k : 0.000466245 0.000466245 0.000583239 0.000583239 
    Block 15379 cell size :
        i : 1
        j : 0.000517672 0.000517672 0 0 
        k : 0.000440324 0.000440324 0.000579086 0.000579086 
    Block 15380 cell size :
        i : 1
        j : 0.00026766 0.00026766 0 0 
        k : 0.000477624 0.000477624 0.000590794 0.000590794 
    Block 15381 cell size :
        i : 1
        j : 0.00026766 0.00026766 0 0 
        k : 0.000467523 0.000467523 0.000583239 0.000583239 
    Block 15382 cell size :
        i : 1
        j : 0.000562338 0.000562338 0 0 
        k : 0.000526198 0.000526198 0.000581821 0.000581821 
    Block 15383 cell size :
        i : 1
        j : 0.000511423 0.000511423 0 0 
        k : 0.000526198 0.000526198 0.000527148 0.000527148 
    Block 15384 cell size :
        i : 1
        j : 0.000490594 0.000490594 0 0 
        k : 0.00041578 0.00041578 0.000527148 0.000527148 
    Block 15385 cell size :
        i : 1
        j : 0.00041578 0.00041578 0 0 
        k : 0.000402246 0.000402246 0.000417019 0.000417019 
    Block 15386 cell size :
        i : 1
        j : 0.000235053 0.000235053 0 0 
        k : 0.000382351 0.000382351 0.000402246 0.000402246 
    Block 15387 cell size :
        i : 1
        j : 0.00030691 0.00030691 0 0 
        k : 0.000382351 0.000382351 0.000524559 0.000524559 
    Block 15388 cell size :
        i : 1
        j : 0.000539735 0.000539735 0 0 
        k : 0.000510683 0.000510683 0.000569127 0.000569127 
    Block 15389 cell size :
        i : 1
        j : 0.000446972 0.000446972 0 0 
        k : 0.000530363 0.000530363 0.000569127 0.000569127 
    Block 15390 cell size :
        i : 1
        j : 0.000446972 0.000446972 0 0 
        k : 0.000503195 0.000503195 0.00051229 0.00051229 
    Block 15391 cell size :
        i : 1
        j : 0.00051229 0.00051229 0 0 
        k : 0.000538046 0.000538046 0.000577848 0.000577848 
    Block 15392 cell size :
        i : 1
        j : 0.00052803 0.00052803 0 0 
        k : 0.000538046 0.000538046 0.000591646 0.000591646 
    Block 15393 cell size :
        i : 1
        j : 0.000555407 0.000555407 0 0 
        k : 0.00052803 0.00052803 0.000573624 0.000573624 
    Block 15394 cell size :
        i : 1
        j : 0.000568961 0.000568961 0 0 
        k : 0.000562338 0.000562338 0.000573624 0.000573624 
    Block 15395 cell size :
        i : 1
        j : 0.000481553 0.000481553 0 0 
        k : 0.000440324 0.000440324 0.00056372 0.00056372 
    Block 15396 cell size :
        i : 1
        j : 0.000481553 0.000481553 0 0 
        k : 0.000438427 0.000438427 0.000510683 0.000510683 
    Block 15397 cell size :
        i : 1
        j : 0.000242118 0.000242118 0 0 
        k : 0.000467523 0.000467523 0.000560326 0.000560326 
    Block 15398 cell size :
        i : 1
        j : 0.000242118 0.000242118 0 0 
        k : 0.000467492 0.000467492 0.00056372 0.00056372 
    Block 15399 cell size :
        i : 1
        j : 0.000497039 0.000497039 0 0 
        k : 0.000459462 0.000459462 0.000568961 0.000568961 
    Block 15400 cell size :
        i : 1
        j : 0.000490594 0.000490594 0 0 
        k : 0.000459462 0.000459462 0.000557596 0.000557596 
    Block 15401 cell size :
        i : 1
        j : 0.000212417 0.000212417 0 0 
        k : 0.000491791 0.000491791 0.000557596 0.000557596 
    Block 15402 cell size :
        i : 1
        j : 0.000235053 0.000235053 0 0 
        k : 0.000491791 0.000491791 0.000531628 0.000531628 
    Block 15403 cell size :
        i : 1
        j : 0.000506928 0.000506928 0 0 
        k : 0.000438427 0.000438427 0.000543148 0.000543148 
    Block 15404 cell size :
        i : 1
        j : 0.000376092 0.000376092 0 0 
        k : 0.000503195 0.000503195 0.000506928 0.000506928 
    Block 15405 cell size :
        i : 1
        j : 0.000531847 0.000531847 0 0 
        k : 0.000376092 0.000376092 0.000564046 0.000564046 
    Block 15406 cell size :
        i : 1
        j : 0.000531847 0.000531847 0 0 
        k : 0.000409273 0.000409273 0.000591646 0.000591646 
    Block 15407 cell size :
        i : 1
        j : 0.000497039 0.000497039 0 0 
        k : 0.000409273 0.000409273 0.000537587 0.000537587 
    Block 15408 cell size :
        i : 1
        j : 0.00022573 0.00022573 0 0 
        k : 0.000467492 0.000467492 0.000554935 0.000554935 
    Block 15409 cell size :
        i : 1
        j : 0.00022573 0.00022573 0 0 
        k : 0.000461342 0.000461342 0.000543148 0.000543148 
    Block 15410 cell size :
        i : 1
        j : 0.000211929 0.000211929 0 0 
        k : 0.000460793 0.000460793 0.000537587 0.000537587 
    Block 15411 cell size :
        i : 1
        j : 0.000212417 0.000212417 0 0 
        k : 0.000460793 0.000460793 0.00053969 0.00053969 
    Block 15412 cell size :
        i : 1
        j : 0.000236239 0.000236239 0 0 
        k : 0.000461342 0.000461342 0.000550281 0.000550281 
    Block 15413 cell size :
        i : 1
        j : 0.000236239 0.000236239 0 0 
        k : 0.000468257 0.000468257 0.000564046 0.000564046 
    Block 15414 cell size :
        i : 1
        j : 0.000211929 0.000211929 0 0 
        k : 0.000468257 0.000468257 0.000545649 0.000545649 
    Block 15415 cell size :
        i : 1
        j : 2.5318e-05 2.5318e-05 0 0 
        k : 2.5318e-05 2.5318e-05 3.5805e-05 3.5805e-05 
    Block 15416 cell size :
        i : 1
        j : 2.33452e-05 2.33452e-05 0 0 
        k : 2.31948e-05 2.31948e-05 3.36006e-05 3.36006e-05 

Writing polyMesh
----------------
Mesh Information
----------------
  boundingBox: (-0.75 -0.75 0) (1.75 0.75 1)
  nPoints: 19350
  nCells: 15417
  nFaces: 55927
  nInternalFaces: 24732
----------------
Patches
----------------
  patch 0 (start: 24732 size: 29) name: top
  patch 1 (start: 24761 size: 30) name: bottom
  patch 2 (start: 24791 size: 17) name: inlet
  patch 3 (start: 24808 size: 17) name: outlet
  patch 4 (start: 24825 size: 268) name: deck
  patch 5 (start: 25093 size: 30834) name: frontAndBack
  patch 6 (start: 55927 size: 0) name: defaultFaces

End

