/*---------------------------------------------------------------------------*\
  =========                 |
  \\      /  F ield         | OpenFOAM: The Open Source CFD Toolbox
   \\    /   O peration     | Website:  https://openfoam.org
    \\  /    A nd           | Version:  8
     \\/     M anipulation  |
\*---------------------------------------------------------------------------*/
Build  : 8-9b73cf21a682
Exec   : simpleFoam
Date   : Oct 05 2020
Time   : 01:37:39
Host   : "bnes"
PID    : 23027
I/O    : uncollated
Case   : /media/sbkim/2266B8F966B8CEB3/git/openfoam_seo/of/org/yjn2/yjn2_rib_upper
nProcs : 1
sigFpe : Enabling floating point exception trapping (FOAM_SIGFPE).
fileModificationChecking : Monitoring run-time modified files using timeStampMaster (fileModificationSkew 10)
allowSystemOperations : Allowing user-supplied system call operations

// * * * * * * * * * * * * * * * * * * * * * * * * * * * * * * * * * * * * * //
Create time

Create mesh for time = 0


SIMPLE: Convergence criteria found
        p: tolerance 0.01
        U: tolerance 0.001
        "(k|epsilon|omega|f|v2)": tolerance 0.001

Reading field p

Reading field U

Reading/calculating face flux field phi

Selecting incompressible transport model Newtonian
Selecting turbulence model type RAS
Selecting RAS turbulence model kEpsilon
RAS
{
    RASModel        kEpsilon;
    turbulence      on;
    printCoeffs     on;
    Cmu             0.09;
    C1              1.44;
    C2              1.92;
    C3              0;
    sigmak          1;
    sigmaEps        1.3;
}

No MRF models present

No finite volume options present

Starting time loop

Time = 0.0001

smoothSolver:  Solving for Ux, Initial residual = 1, Final residual = 0.000582074, No Iterations 1
smoothSolver:  Solving for Uy, Initial residual = 1, Final residual = 0.0578349, No Iterations 1
GAMG:  Solving for p, Initial residual = 1, Final residual = 0.0627831, No Iterations 6
time step continuity errors : sum local = 2.51275e-05, global = -4.41311e-06, cumulative = -4.41311e-06
smoothSolver:  Solving for epsilon, Initial residual = 0.104654, Final residual = 0.0059311, No Iterations 3
smoothSolver:  Solving for k, Initial residual = 1, Final residual = 0.0617011, No Iterations 2
ExecutionTime = 0.06 s  ClockTime = 0 s

Time = 0.0002

smoothSolver:  Solving for Ux, Initial residual = 0.380126, Final residual = 0.0125144, No Iterations 2
smoothSolver:  Solving for Uy, Initial residual = 0.660402, Final residual = 0.0638501, No Iterations 1
GAMG:  Solving for p, Initial residual = 0.723179, Final residual = 0.0486818, No Iterations 3
time step continuity errors : sum local = 7.888e-05, global = 1.02446e-05, cumulative = 5.83153e-06
smoothSolver:  Solving for epsilon, Initial residual = 0.0257304, Final residual = 0.00027272, No Iterations 1
smoothSolver:  Solving for k, Initial residual = 0.539613, Final residual = 0.0243461, No Iterations 2
ExecutionTime = 0.08 s  ClockTime = 0 s

Time = 0.0003

smoothSolver:  Solving for Ux, Initial residual = 0.193915, Final residual = 0.00885649, No Iterations 2
smoothSolver:  Solving for Uy, Initial residual = 0.600861, Final residual = 0.0220663, No Iterations 2
GAMG:  Solving for p, Initial residual = 0.171659, Final residual = 0.0156729, No Iterations 3
time step continuity errors : sum local = 4.57599e-05, global = 3.27281e-06, cumulative = 9.10434e-06
smoothSolver:  Solving for epsilon, Initial residual = 0.0186634, Final residual = 0.000786469, No Iterations 1
smoothSolver:  Solving for k, Initial residual = 0.386733, Final residual = 0.0243391, No Iterations 2
ExecutionTime = 0.09 s  ClockTime = 0 s

Time = 0.0004

smoothSolver:  Solving for Ux, Initial residual = 0.117613, Final residual = 0.00788294, No Iterations 2
smoothSolver:  Solving for Uy, Initial residual = 0.489584, Final residual = 0.0195641, No Iterations 2
GAMG:  Solving for p, Initial residual = 0.0976293, Final residual = 0.00679808, No Iterations 3
time step continuity errors : sum local = 2.76216e-05, global = -1.14662e-06, cumulative = 7.95773e-06
smoothSolver:  Solving for epsilon, Initial residual = 0.0137144, Final residual = 0.000472907, No Iterations 2
smoothSolver:  Solving for k, Initial residual = 0.275018, Final residual = 0.0189144, No Iterations 2
ExecutionTime = 0.11 s  ClockTime = 0 s

Time = 0.0005

smoothSolver:  Solving for Ux, Initial residual = 0.0816479, Final residual = 0.00627793, No Iterations 2
smoothSolver:  Solving for Uy, Initial residual = 0.371969, Final residual = 0.0189444, No Iterations 2
GAMG:  Solving for p, Initial residual = 0.0868612, Final residual = 0.00814366, No Iterations 2
time step continuity errors : sum local = 3.09524e-05, global = -5.28466e-06, cumulative = 2.67307e-06
smoothSolver:  Solving for epsilon, Initial residual = 0.014227, Final residual = 0.00079818, No Iterations 2
bounding epsilon, min: -0.53357 max: 923.762 average: 20.6273
smoothSolver:  Solving for k, Initial residual = 0.170673, Final residual = 0.0110747, No Iterations 2
ExecutionTime = 0.13 s  ClockTime = 0 s

Time = 0.0006

smoothSolver:  Solving for Ux, Initial residual = 0.0593054, Final residual = 0.00562414, No Iterations 2
smoothSolver:  Solving for Uy, Initial residual = 0.286284, Final residual = 0.0168634, No Iterations 2
GAMG:  Solving for p, Initial residual = 0.080859, Final residual = 0.0050859, No Iterations 3
time step continuity errors : sum local = 1.85537e-05, global = -1.7674e-06, cumulative = 9.0567e-07
smoothSolver:  Solving for epsilon, Initial residual = 0.0118127, Final residual = 0.000719168, No Iterations 2
smoothSolver:  Solving for k, Initial residual = 0.120913, Final residual = 0.00779226, No Iterations 2
ExecutionTime = 0.16 s  ClockTime = 0 s

Time = 0.0007

smoothSolver:  Solving for Ux, Initial residual = 0.0485716, Final residual = 0.00235049, No Iterations 3
smoothSolver:  Solving for Uy, Initial residual = 0.239908, Final residual = 0.0153995, No Iterations 2
GAMG:  Solving for p, Initial residual = 0.0905641, Final residual = 0.00800959, No Iterations 2
time step continuity errors : sum local = 2.17244e-05, global = -4.34794e-06, cumulative = -3.44227e-06
smoothSolver:  Solving for epsilon, Initial residual = 0.00825946, Final residual = 0.000604472, No Iterations 2
smoothSolver:  Solving for k, Initial residual = 0.0916401, Final residual = 0.00605127, No Iterations 2
ExecutionTime = 0.18 s  ClockTime = 0 s

Time = 0.0008

smoothSolver:  Solving for Ux, Initial residual = 0.0430247, Final residual = 0.00215579, No Iterations 3
smoothSolver:  Solving for Uy, Initial residual = 0.197828, Final residual = 0.0147414, No Iterations 2
GAMG:  Solving for p, Initial residual = 0.091276, Final residual = 0.00473212, No Iterations 3
time step continuity errors : sum local = 1.2249e-05, global = -1.44871e-06, cumulative = -4.89098e-06
smoothSolver:  Solving for epsilon, Initial residual = 0.00626109, Final residual = 0.000489535, No Iterations 2
smoothSolver:  Solving for k, Initial residual = 0.0734702, Final residual = 0.00504553, No Iterations 2
ExecutionTime = 0.2 s  ClockTime = 0 s

Time = 0.0009

smoothSolver:  Solving for Ux, Initial residual = 0.0383629, Final residual = 0.00190255, No Iterations 3
smoothSolver:  Solving for Uy, Initial residual = 0.190215, Final residual = 0.0150158, No Iterations 2
GAMG:  Solving for p, Initial residual = 0.076784, Final residual = 0.0069893, No Iterations 2
time step continuity errors : sum local = 1.85236e-05, global = -3.00593e-06, cumulative = -7.89691e-06
smoothSolver:  Solving for epsilon, Initial residual = 0.00471223, Final residual = 0.000425362, No Iterations 2
smoothSolver:  Solving for k, Initial residual = 0.0589715, Final residual = 0.00426098, No Iterations 2
ExecutionTime = 0.23 s  ClockTime = 0 s

Time = 0.001

smoothSolver:  Solving for Ux, Initial residual = 0.0327138, Final residual = 0.00168637, No Iterations 3
smoothSolver:  Solving for Uy, Initial residual = 0.174058, Final residual = 0.0140684, No Iterations 2
GAMG:  Solving for p, Initial residual = 0.0653589, Final residual = 0.00645618, No Iterations 2
time step continuity errors : sum local = 1.73911e-05, global = -2.30089e-06, cumulative = -1.01978e-05
smoothSolver:  Solving for epsilon, Initial residual = 0.00364544, Final residual = 0.000350127, No Iterations 2
smoothSolver:  Solving for k, Initial residual = 0.0490904, Final residual = 0.00373, No Iterations 2
ExecutionTime = 0.25 s  ClockTime = 1 s

Time = 0.0011

smoothSolver:  Solving for Ux, Initial residual = 0.029779, Final residual = 0.00150227, No Iterations 3
smoothSolver:  Solving for Uy, Initial residual = 0.165075, Final residual = 0.0135177, No Iterations 2
GAMG:  Solving for p, Initial residual = 0.0568524, Final residual = 0.00497257, No Iterations 2
time step continuity errors : sum local = 1.26686e-05, global = -1.01761e-06, cumulative = -1.12154e-05
smoothSolver:  Solving for epsilon, Initial residual = 0.00302432, Final residual = 0.000149815, No Iterations 3
smoothSolver:  Solving for k, Initial residual = 0.0403564, Final residual = 0.00333777, No Iterations 2
ExecutionTime = 0.26 s  ClockTime = 1 s

Time = 0.0012

smoothSolver:  Solving for Ux, Initial residual = 0.0270672, Final residual = 0.00136159, No Iterations 3
smoothSolver:  Solving for Uy, Initial residual = 0.149869, Final residual = 0.0127357, No Iterations 2
GAMG:  Solving for p, Initial residual = 0.0534926, Final residual = 0.00413888, No Iterations 2
time step continuity errors : sum local = 9.72168e-06, global = 1.05614e-06, cumulative = -1.01593e-05
smoothSolver:  Solving for epsilon, Initial residual = 0.00276533, Final residual = 0.000132249, No Iterations 3
smoothSolver:  Solving for k, Initial residual = 0.0343052, Final residual = 0.00294707, No Iterations 2
ExecutionTime = 0.28 s  ClockTime = 1 s

Time = 0.0013

smoothSolver:  Solving for Ux, Initial residual = 0.0238717, Final residual = 0.00120185, No Iterations 3
smoothSolver:  Solving for Uy, Initial residual = 0.125298, Final residual = 0.0116006, No Iterations 2
GAMG:  Solving for p, Initial residual = 0.0512839, Final residual = 0.0048987, No Iterations 2
time step continuity errors : sum local = 1.04358e-05, global = 1.69622e-06, cumulative = -8.46304e-06
smoothSolver:  Solving for epsilon, Initial residual = 0.00250771, Final residual = 0.000121268, No Iterations 3
smoothSolver:  Solving for k, Initial residual = 0.0310905, Final residual = 0.00287606, No Iterations 2
ExecutionTime = 0.3 s  ClockTime = 1 s

Time = 0.0014

smoothSolver:  Solving for Ux, Initial residual = 0.0215355, Final residual = 0.0010507, No Iterations 3
smoothSolver:  Solving for Uy, Initial residual = 0.110617, Final residual = 0.0107809, No Iterations 2
GAMG:  Solving for p, Initial residual = 0.0573192, Final residual = 0.00499462, No Iterations 2
time step continuity errors : sum local = 8.7484e-06, global = 8.01205e-07, cumulative = -7.66184e-06
smoothSolver:  Solving for epsilon, Initial residual = 0.00240295, Final residual = 0.00011091, No Iterations 3
smoothSolver:  Solving for k, Initial residual = 0.0281644, Final residual = 0.002776, No Iterations 2
ExecutionTime = 0.33 s  ClockTime = 1 s

Time = 0.0015

smoothSolver:  Solving for Ux, Initial residual = 0.0190445, Final residual = 0.000959843, No Iterations 3
smoothSolver:  Solving for Uy, Initial residual = 0.0995592, Final residual = 0.00989894, No Iterations 2
GAMG:  Solving for p, Initial residual = 0.0562967, Final residual = 0.00414287, No Iterations 2
time step continuity errors : sum local = 6.87961e-06, global = 6.98348e-07, cumulative = -6.96349e-06
smoothSolver:  Solving for epsilon, Initial residual = 0.00231606, Final residual = 0.000105939, No Iterations 3
smoothSolver:  Solving for k, Initial residual = 0.0264322, Final residual = 0.00244468, No Iterations 2
ExecutionTime = 0.35 s  ClockTime = 1 s

Time = 0.0016

smoothSolver:  Solving for Ux, Initial residual = 0.0163877, Final residual = 0.000909221, No Iterations 3
smoothSolver:  Solving for Uy, Initial residual = 0.0902307, Final residual = 0.00883345, No Iterations 2
GAMG:  Solving for p, Initial residual = 0.0496541, Final residual = 0.00333776, No Iterations 2
time step continuity errors : sum local = 5.90551e-06, global = 6.46607e-07, cumulative = -6.31688e-06
smoothSolver:  Solving for epsilon, Initial residual = 0.00226189, Final residual = 0.000104118, No Iterations 3
smoothSolver:  Solving for k, Initial residual = 0.0231595, Final residual = 0.00221882, No Iterations 2
ExecutionTime = 0.37 s  ClockTime = 1 s

Time = 0.0017

smoothSolver:  Solving for Ux, Initial residual = 0.0141824, Final residual = 0.000867497, No Iterations 3
smoothSolver:  Solving for Uy, Initial residual = 0.0816994, Final residual = 0.00794008, No Iterations 2
GAMG:  Solving for p, Initial residual = 0.0446271, Final residual = 0.0028867, No Iterations 2
time step continuity errors : sum local = 5.35333e-06, global = 6.97108e-07, cumulative = -5.61977e-06
smoothSolver:  Solving for epsilon, Initial residual = 0.00219951, Final residual = 0.000219733, No Iterations 2
smoothSolver:  Solving for k, Initial residual = 0.0207143, Final residual = 0.00203802, No Iterations 2
ExecutionTime = 0.39 s  ClockTime = 1 s

Time = 0.0018

smoothSolver:  Solving for Ux, Initial residual = 0.0127328, Final residual = 0.000819428, No Iterations 3
smoothSolver:  Solving for Uy, Initial residual = 0.0745217, Final residual = 0.00721699, No Iterations 2
GAMG:  Solving for p, Initial residual = 0.0404381, Final residual = 0.00256517, No Iterations 2
time step continuity errors : sum local = 4.93963e-06, global = 7.69144e-07, cumulative = -4.85063e-06
smoothSolver:  Solving for epsilon, Initial residual = 0.00219728, Final residual = 0.000100862, No Iterations 3
smoothSolver:  Solving for k, Initial residual = 0.0183896, Final residual = 0.000904246, No Iterations 3
ExecutionTime = 0.41 s  ClockTime = 1 s

Time = 0.0019

smoothSolver:  Solving for Ux, Initial residual = 0.0116873, Final residual = 0.000765659, No Iterations 3
smoothSolver:  Solving for Uy, Initial residual = 0.0685288, Final residual = 0.00655497, No Iterations 2
GAMG:  Solving for p, Initial residual = 0.0371491, Final residual = 0.00228311, No Iterations 2
time step continuity errors : sum local = 4.52938e-06, global = 7.74324e-07, cumulative = -4.07631e-06
smoothSolver:  Solving for epsilon, Initial residual = 0.00216697, Final residual = 0.000110687, No Iterations 3
smoothSolver:  Solving for k, Initial residual = 0.0158851, Final residual = 0.000841328, No Iterations 3
ExecutionTime = 0.44 s  ClockTime = 1 s

Time = 0.002

smoothSolver:  Solving for Ux, Initial residual = 0.0107386, Final residual = 0.000718476, No Iterations 3
smoothSolver:  Solving for Uy, Initial residual = 0.0628081, Final residual = 0.00591903, No Iterations 2
GAMG:  Solving for p, Initial residual = 0.0340432, Final residual = 0.00204086, No Iterations 2
time step continuity errors : sum local = 4.14653e-06, global = 6.9356e-07, cumulative = -3.38275e-06
smoothSolver:  Solving for epsilon, Initial residual = 0.00220023, Final residual = 0.000113013, No Iterations 3
smoothSolver:  Solving for k, Initial residual = 0.0137718, Final residual = 0.000794259, No Iterations 3
ExecutionTime = 0.46 s  ClockTime = 1 s

Time = 0.0021

smoothSolver:  Solving for Ux, Initial residual = 0.00987705, Final residual = 0.000676738, No Iterations 3
smoothSolver:  Solving for Uy, Initial residual = 0.0579202, Final residual = 0.00534135, No Iterations 2
GAMG:  Solving for p, Initial residual = 0.0315072, Final residual = 0.00185908, No Iterations 2
time step continuity errors : sum local = 3.85228e-06, global = 5.80281e-07, cumulative = -2.80246e-06
smoothSolver:  Solving for epsilon, Initial residual = 0.00210894, Final residual = 0.000118895, No Iterations 3
smoothSolver:  Solving for k, Initial residual = 0.0123999, Final residual = 0.000751915, No Iterations 3
ExecutionTime = 0.49 s  ClockTime = 1 s

Time = 0.0022

smoothSolver:  Solving for Ux, Initial residual = 0.00913122, Final residual = 0.000641001, No Iterations 3
smoothSolver:  Solving for Uy, Initial residual = 0.0534117, Final residual = 0.00482456, No Iterations 2
GAMG:  Solving for p, Initial residual = 0.0291234, Final residual = 0.00171967, No Iterations 2
time step continuity errors : sum local = 3.62279e-06, global = 4.44265e-07, cumulative = -2.3582e-06
smoothSolver:  Solving for epsilon, Initial residual = 0.0021245, Final residual = 0.000123134, No Iterations 3
smoothSolver:  Solving for k, Initial residual = 0.0111655, Final residual = 0.000717558, No Iterations 3
ExecutionTime = 0.51 s  ClockTime = 1 s

Time = 0.0023

smoothSolver:  Solving for Ux, Initial residual = 0.00844539, Final residual = 0.000611517, No Iterations 3
smoothSolver:  Solving for Uy, Initial residual = 0.0498626, Final residual = 0.00436175, No Iterations 2
GAMG:  Solving for p, Initial residual = 0.0269698, Final residual = 0.00161891, No Iterations 2
time step continuity errors : sum local = 3.4566e-06, global = 3.14158e-07, cumulative = -2.04404e-06
smoothSolver:  Solving for epsilon, Initial residual = 0.00207488, Final residual = 0.000126873, No Iterations 3
smoothSolver:  Solving for k, Initial residual = 0.010166, Final residual = 0.000672869, No Iterations 3
ExecutionTime = 0.53 s  ClockTime = 1 s

Time = 0.0024

smoothSolver:  Solving for Ux, Initial residual = 0.00783039, Final residual = 0.000586292, No Iterations 3
smoothSolver:  Solving for Uy, Initial residual = 0.0468508, Final residual = 0.004013, No Iterations 2
GAMG:  Solving for p, Initial residual = 0.024874, Final residual = 0.00153578, No Iterations 2
time step continuity errors : sum local = 3.32158e-06, global = 1.82942e-07, cumulative = -1.8611e-06
smoothSolver:  Solving for epsilon, Initial residual = 0.00200824, Final residual = 0.000131056, No Iterations 3
smoothSolver:  Solving for k, Initial residual = 0.00915223, Final residual = 0.000647908, No Iterations 3
ExecutionTime = 0.57 s  ClockTime = 1 s

Time = 0.0025

smoothSolver:  Solving for Ux, Initial residual = 0.00727341, Final residual = 0.000566128, No Iterations 3
smoothSolver:  Solving for Uy, Initial residual = 0.0440401, Final residual = 0.00378875, No Iterations 2
GAMG:  Solving for p, Initial residual = 0.0230658, Final residual = 0.0014664, No Iterations 2
time step continuity errors : sum local = 3.20657e-06, global = 6.87447e-08, cumulative = -1.79235e-06
smoothSolver:  Solving for epsilon, Initial residual = 0.00192206, Final residual = 0.000129958, No Iterations 3
smoothSolver:  Solving for k, Initial residual = 0.00836844, Final residual = 0.000599124, No Iterations 3
ExecutionTime = 0.58 s  ClockTime = 1 s

Time = 0.0026

smoothSolver:  Solving for Ux, Initial residual = 0.0067828, Final residual = 0.000549191, No Iterations 3
smoothSolver:  Solving for Uy, Initial residual = 0.0415523, Final residual = 0.00361876, No Iterations 2
GAMG:  Solving for p, Initial residual = 0.0213951, Final residual = 0.00139893, No Iterations 2
time step continuity errors : sum local = 3.08978e-06, global = -2.57526e-08, cumulative = -1.81811e-06
smoothSolver:  Solving for epsilon, Initial residual = 0.00177777, Final residual = 0.000123942, No Iterations 3
smoothSolver:  Solving for k, Initial residual = 0.00755805, Final residual = 0.000565349, No Iterations 3
ExecutionTime = 0.6 s  ClockTime = 1 s

Time = 0.0027

smoothSolver:  Solving for Ux, Initial residual = 0.00635796, Final residual = 0.000536364, No Iterations 3
smoothSolver:  Solving for Uy, Initial residual = 0.0392034, Final residual = 0.00349767, No Iterations 2
GAMG:  Solving for p, Initial residual = 0.0199157, Final residual = 0.00133394, No Iterations 2
time step continuity errors : sum local = 2.97112e-06, global = -9.08864e-08, cumulative = -1.90899e-06
smoothSolver:  Solving for epsilon, Initial residual = 0.00176255, Final residual = 0.000125097, No Iterations 3
smoothSolver:  Solving for k, Initial residual = 0.0070649, Final residual = 0.000537844, No Iterations 3
ExecutionTime = 0.62 s  ClockTime = 1 s

Time = 0.0028

smoothSolver:  Solving for Ux, Initial residual = 0.00598885, Final residual = 0.000526162, No Iterations 3
smoothSolver:  Solving for Uy, Initial residual = 0.0370829, Final residual = 0.00341473, No Iterations 2
GAMG:  Solving for p, Initial residual = 0.0185854, Final residual = 0.00126897, No Iterations 2
time step continuity errors : sum local = 2.84788e-06, global = -1.28295e-07, cumulative = -2.03729e-06
smoothSolver:  Solving for epsilon, Initial residual = 0.00155762, Final residual = 0.000123369, No Iterations 3
smoothSolver:  Solving for k, Initial residual = 0.00631024, Final residual = 0.000497979, No Iterations 3
ExecutionTime = 0.64 s  ClockTime = 1 s

Time = 0.0029

smoothSolver:  Solving for Ux, Initial residual = 0.00569933, Final residual = 0.0005177, No Iterations 3
smoothSolver:  Solving for Uy, Initial residual = 0.0351589, Final residual = 0.00336473, No Iterations 2
GAMG:  Solving for p, Initial residual = 0.0173562, Final residual = 0.0012014, No Iterations 2
time step continuity errors : sum local = 2.71344e-06, global = -1.42225e-07, cumulative = -2.17951e-06
smoothSolver:  Solving for epsilon, Initial residual = 0.001536, Final residual = 0.000111664, No Iterations 3
smoothSolver:  Solving for k, Initial residual = 0.00574063, Final residual = 0.000476133, No Iterations 3
ExecutionTime = 0.66 s  ClockTime = 1 s

Time = 0.003

smoothSolver:  Solving for Ux, Initial residual = 0.00544922, Final residual = 0.00051086, No Iterations 3
smoothSolver:  Solving for Uy, Initial residual = 0.0334448, Final residual = 0.0018326, No Iterations 3
GAMG:  Solving for p, Initial residual = 0.0162852, Final residual = 0.00116195, No Iterations 2
time step continuity errors : sum local = 2.63703e-06, global = -1.42144e-07, cumulative = -2.32166e-06
smoothSolver:  Solving for epsilon, Initial residual = 0.00135232, Final residual = 0.000111122, No Iterations 3
smoothSolver:  Solving for k, Initial residual = 0.00523851, Final residual = 0.000448606, No Iterations 3
ExecutionTime = 0.69 s  ClockTime = 1 s

Time = 0.0031

smoothSolver:  Solving for Ux, Initial residual = 0.00524458, Final residual = 0.000505811, No Iterations 3
smoothSolver:  Solving for Uy, Initial residual = 0.0317422, Final residual = 0.00177047, No Iterations 3
GAMG:  Solving for p, Initial residual = 0.0153336, Final residual = 0.00110554, No Iterations 2
time step continuity errors : sum local = 2.51848e-06, global = -1.21137e-07, cumulative = -2.4428e-06
smoothSolver:  Solving for epsilon, Initial residual = 0.00132705, Final residual = 9.93116e-05, No Iterations 3
smoothSolver:  Solving for k, Initial residual = 0.00471292, Final residual = 0.000413282, No Iterations 3
ExecutionTime = 0.71 s  ClockTime = 1 s

Time = 0.0032

smoothSolver:  Solving for Ux, Initial residual = 0.00502439, Final residual = 0.000499641, No Iterations 3
smoothSolver:  Solving for Uy, Initial residual = 0.0300984, Final residual = 0.00174832, No Iterations 3
GAMG:  Solving for p, Initial residual = 0.0144707, Final residual = 0.00104608, No Iterations 2
time step continuity errors : sum local = 2.39179e-06, global = -9.96946e-08, cumulative = -2.54249e-06
smoothSolver:  Solving for epsilon, Initial residual = 0.00115273, Final residual = 9.8649e-05, No Iterations 3
smoothSolver:  Solving for k, Initial residual = 0.00429998, Final residual = 0.000383839, No Iterations 3
ExecutionTime = 0.75 s  ClockTime = 1 s

Time = 0.0033

smoothSolver:  Solving for Ux, Initial residual = 0.00481439, Final residual = 0.000310826, No Iterations 4
smoothSolver:  Solving for Uy, Initial residual = 0.0286903, Final residual = 0.0017439, No Iterations 3
GAMG:  Solving for p, Initial residual = 0.0136333, Final residual = 0.00102251, No Iterations 2
time step continuity errors : sum local = 2.34704e-06, global = -5.58736e-08, cumulative = -2.59836e-06
smoothSolver:  Solving for epsilon, Initial residual = 0.00112825, Final residual = 9.0352e-05, No Iterations 3
smoothSolver:  Solving for k, Initial residual = 0.00392451, Final residual = 0.000360106, No Iterations 3
ExecutionTime = 0.77 s  ClockTime = 1 s

Time = 0.0034

smoothSolver:  Solving for Ux, Initial residual = 0.00462315, Final residual = 0.000304252, No Iterations 4
smoothSolver:  Solving for Uy, Initial residual = 0.027652, Final residual = 0.00179967, No Iterations 3
GAMG:  Solving for p, Initial residual = 0.0128334, Final residual = 0.000995043, No Iterations 2
time step continuity errors : sum local = 2.29791e-06, global = -3.58504e-08, cumulative = -2.63421e-06
smoothSolver:  Solving for epsilon, Initial residual = 0.000997907, Final residual = 8.99065e-05, No Iterations 3
smoothSolver:  Solving for k, Initial residual = 0.00366193, Final residual = 0.000335936, No Iterations 3
ExecutionTime = 0.79 s  ClockTime = 1 s

Time = 0.0035

smoothSolver:  Solving for Ux, Initial residual = 0.00445698, Final residual = 0.000297526, No Iterations 4
smoothSolver:  Solving for Uy, Initial residual = 0.0266932, Final residual = 0.00185847, No Iterations 3
GAMG:  Solving for p, Initial residual = 0.0120944, Final residual = 0.000958302, No Iterations 2
time step continuity errors : sum local = 2.22879e-06, global = -3.16834e-08, cumulative = -2.6659e-06
smoothSolver:  Solving for epsilon, Initial residual = 0.000988233, Final residual = 8.10132e-05, No Iterations 3
smoothSolver:  Solving for k, Initial residual = 0.00337915, Final residual = 0.000315818, No Iterations 3
ExecutionTime = 0.81 s  ClockTime = 1 s

Time = 0.0036

smoothSolver:  Solving for Ux, Initial residual = 0.00432131, Final residual = 0.000290973, No Iterations 4
smoothSolver:  Solving for Uy, Initial residual = 0.0256618, Final residual = 0.00192273, No Iterations 3
GAMG:  Solving for p, Initial residual = 0.0113996, Final residual = 0.000920429, No Iterations 2
time step continuity errors : sum local = 2.15573e-06, global = -3.64126e-08, cumulative = -2.70231e-06
smoothSolver:  Solving for epsilon, Initial residual = 0.000872234, Final residual = 8.00733e-05, No Iterations 3
smoothSolver:  Solving for k, Initial residual = 0.00309305, Final residual = 0.00029544, No Iterations 3
ExecutionTime = 0.83 s  ClockTime = 1 s

Time = 0.0037

smoothSolver:  Solving for Ux, Initial residual = 0.00419174, Final residual = 0.000285617, No Iterations 4
smoothSolver:  Solving for Uy, Initial residual = 0.024707, Final residual = 0.00198944, No Iterations 3
GAMG:  Solving for p, Initial residual = 0.0108122, Final residual = 0.000880384, No Iterations 2
time step continuity errors : sum local = 2.07486e-06, global = -4.13644e-08, cumulative = -2.74367e-06
smoothSolver:  Solving for epsilon, Initial residual = 0.000888058, Final residual = 7.10957e-05, No Iterations 3
smoothSolver:  Solving for k, Initial residual = 0.00293009, Final residual = 0.000281225, No Iterations 3
ExecutionTime = 0.85 s  ClockTime = 1 s

Time = 0.0038

smoothSolver:  Solving for Ux, Initial residual = 0.00405636, Final residual = 0.000281561, No Iterations 4
smoothSolver:  Solving for Uy, Initial residual = 0.0238131, Final residual = 0.00206153, No Iterations 3
GAMG:  Solving for p, Initial residual = 0.0102904, Final residual = 0.000840356, No Iterations 2
time step continuity errors : sum local = 1.99133e-06, global = -4.26987e-08, cumulative = -2.78637e-06
smoothSolver:  Solving for epsilon, Initial residual = 0.000768697, Final residual = 7.31668e-05, No Iterations 3
smoothSolver:  Solving for k, Initial residual = 0.00271196, Final residual = 0.000268023, No Iterations 3
ExecutionTime = 0.87 s  ClockTime = 1 s

Time = 0.0039

smoothSolver:  Solving for Ux, Initial residual = 0.00392558, Final residual = 0.000278827, No Iterations 4
smoothSolver:  Solving for Uy, Initial residual = 0.023163, Final residual = 0.00213656, No Iterations 3
GAMG:  Solving for p, Initial residual = 0.00981976, Final residual = 0.000803472, No Iterations 2
time step continuity errors : sum local = 1.91298e-06, global = -3.85441e-08, cumulative = -2.82492e-06
smoothSolver:  Solving for epsilon, Initial residual = 0.000790821, Final residual = 6.54379e-05, No Iterations 3
smoothSolver:  Solving for k, Initial residual = 0.00260915, Final residual = 0.000257826, No Iterations 3
ExecutionTime = 0.89 s  ClockTime = 1 s

Time = 0.004

smoothSolver:  Solving for Ux, Initial residual = 0.00381253, Final residual = 0.000276684, No Iterations 4
smoothSolver:  Solving for Uy, Initial residual = 0.0225345, Final residual = 0.0022228, No Iterations 3
GAMG:  Solving for p, Initial residual = 0.00935614, Final residual = 0.000768673, No Iterations 2
time step continuity errors : sum local = 1.83874e-06, global = -2.95381e-08, cumulative = -2.85445e-06
smoothSolver:  Solving for epsilon, Initial residual = 0.000686893, Final residual = 6.72709e-05, No Iterations 3
smoothSolver:  Solving for k, Initial residual = 0.00246689, Final residual = 0.000153867, No Iterations 4
ExecutionTime = 0.91 s  ClockTime = 1 s

Time = 0.0041

smoothSolver:  Solving for Ux, Initial residual = 0.00369571, Final residual = 0.000275067, No Iterations 4
smoothSolver:  Solving for Uy, Initial residual = 0.0220537, Final residual = 0.00145381, No Iterations 4
GAMG:  Solving for p, Initial residual = 0.00894393, Final residual = 0.000757053, No Iterations 2
time step continuity errors : sum local = 1.82008e-06, global = -2.00301e-08, cumulative = -2.87448e-06
smoothSolver:  Solving for epsilon, Initial residual = 0.000702924, Final residual = 6.23445e-05, No Iterations 3
smoothSolver:  Solving for k, Initial residual = 0.00237298, Final residual = 0.000150994, No Iterations 4
ExecutionTime = 0.93 s  ClockTime = 1 s

Time = 0.0042

smoothSolver:  Solving for Ux, Initial residual = 0.00360598, Final residual = 0.000275726, No Iterations 4
smoothSolver:  Solving for Uy, Initial residual = 0.0216203, Final residual = 0.00149146, No Iterations 4
GAMG:  Solving for p, Initial residual = 0.00853548, Final residual = 0.000731934, No Iterations 2
time step continuity errors : sum local = 1.77124e-06, global = -8.49409e-09, cumulative = -2.88298e-06
smoothSolver:  Solving for epsilon, Initial residual = 0.00063543, Final residual = 3.87509e-05, No Iterations 4
smoothSolver:  Solving for k, Initial residual = 0.00223859, Final residual = 0.000146468, No Iterations 4
ExecutionTime = 0.95 s  ClockTime = 1 s

Time = 0.0043

smoothSolver:  Solving for Ux, Initial residual = 0.00353575, Final residual = 0.000276111, No Iterations 4
smoothSolver:  Solving for Uy, Initial residual = 0.0213605, Final residual = 0.00153205, No Iterations 4
GAMG:  Solving for p, Initial residual = 0.00814585, Final residual = 0.000711916, No Iterations 2
time step continuity errors : sum local = 1.73679e-06, global = 1.25556e-10, cumulative = -2.88285e-06
smoothSolver:  Solving for epsilon, Initial residual = 0.00061069, Final residual = 5.71385e-05, No Iterations 3
smoothSolver:  Solving for k, Initial residual = 0.00215403, Final residual = 0.00014181, No Iterations 4
ExecutionTime = 0.97 s  ClockTime = 1 s

Time = 0.0044

smoothSolver:  Solving for Ux, Initial residual = 0.0034631, Final residual = 0.000275646, No Iterations 4
smoothSolver:  Solving for Uy, Initial residual = 0.0211356, Final residual = 0.00157697, No Iterations 4
GAMG:  Solving for p, Initial residual = 0.00778404, Final residual = 0.000705015, No Iterations 2
time step continuity errors : sum local = 1.73605e-06, global = 8.47794e-09, cumulative = -2.87438e-06
smoothSolver:  Solving for epsilon, Initial residual = 0.000562653, Final residual = 3.56386e-05, No Iterations 4
smoothSolver:  Solving for k, Initial residual = 0.00206049, Final residual = 0.000138126, No Iterations 4
ExecutionTime = 0.99 s  ClockTime = 1 s

Time = 0.0045

smoothSolver:  Solving for Ux, Initial residual = 0.0034014, Final residual = 0.000274839, No Iterations 4
smoothSolver:  Solving for Uy, Initial residual = 0.0209367, Final residual = 0.00162231, No Iterations 4
GAMG:  Solving for p, Initial residual = 0.00745162, Final residual = 0.000709758, No Iterations 2
time step continuity errors : sum local = 1.76635e-06, global = 1.57429e-08, cumulative = -2.85863e-06
smoothSolver:  Solving for epsilon, Initial residual = 0.000538954, Final residual = 5.33241e-05, No Iterations 3
smoothSolver:  Solving for k, Initial residual = 0.00201484, Final residual = 0.000134413, No Iterations 4
ExecutionTime = 1.01 s  ClockTime = 1 s

Time = 0.0046

smoothSolver:  Solving for Ux, Initial residual = 0.00333928, Final residual = 0.000273447, No Iterations 4
smoothSolver:  Solving for Uy, Initial residual = 0.0207543, Final residual = 0.00167485, No Iterations 4
GAMG:  Solving for p, Initial residual = 0.00714097, Final residual = 0.000393969, No Iterations 3
time step continuity errors : sum local = 9.91516e-07, global = 5.55524e-08, cumulative = -2.80308e-06
smoothSolver:  Solving for epsilon, Initial residual = 0.000503699, Final residual = 3.299e-05, No Iterations 4
smoothSolver:  Solving for k, Initial residual = 0.00189955, Final residual = 0.00013066, No Iterations 4
ExecutionTime = 1.03 s  ClockTime = 1 s

Time = 0.0047

smoothSolver:  Solving for Ux, Initial residual = 0.00337414, Final residual = 0.000270013, No Iterations 4
smoothSolver:  Solving for Uy, Initial residual = 0.0217245, Final residual = 0.00177286, No Iterations 4
GAMG:  Solving for p, Initial residual = 0.00676779, Final residual = 0.000575682, No Iterations 2
time step continuity errors : sum local = 1.48224e-06, global = -5.23158e-10, cumulative = -2.8036e-06
smoothSolver:  Solving for epsilon, Initial residual = 0.000481542, Final residual = 2.98044e-05, No Iterations 4
smoothSolver:  Solving for k, Initial residual = 0.00188164, Final residual = 0.000125695, No Iterations 4
ExecutionTime = 1.05 s  ClockTime = 1 s

Time = 0.0048

smoothSolver:  Solving for Ux, Initial residual = 0.00318078, Final residual = 0.000271437, No Iterations 4
smoothSolver:  Solving for Uy, Initial residual = 0.020151, Final residual = 0.00181016, No Iterations 4
GAMG:  Solving for p, Initial residual = 0.00656136, Final residual = 0.000397573, No Iterations 3
time step continuity errors : sum local = 1.02499e-06, global = 5.22209e-08, cumulative = -2.75138e-06
smoothSolver:  Solving for epsilon, Initial residual = 0.000449074, Final residual = 2.9498e-05, No Iterations 4
smoothSolver:  Solving for k, Initial residual = 0.0017728, Final residual = 0.000119575, No Iterations 4
ExecutionTime = 1.07 s  ClockTime = 1 s

Time = 0.0049

smoothSolver:  Solving for Ux, Initial residual = 0.00322945, Final residual = 0.000266364, No Iterations 4
smoothSolver:  Solving for Uy, Initial residual = 0.0211053, Final residual = 0.00190259, No Iterations 4
GAMG:  Solving for p, Initial residual = 0.00629079, Final residual = 0.000544853, No Iterations 2
time step continuity errors : sum local = 1.42567e-06, global = 1.50595e-08, cumulative = -2.73632e-06
smoothSolver:  Solving for epsilon, Initial residual = 0.000429827, Final residual = 2.65147e-05, No Iterations 4
smoothSolver:  Solving for k, Initial residual = 0.00175789, Final residual = 0.000114475, No Iterations 4
ExecutionTime = 1.09 s  ClockTime = 1 s

Time = 0.005

smoothSolver:  Solving for Ux, Initial residual = 0.00303537, Final residual = 0.000266747, No Iterations 4
smoothSolver:  Solving for Uy, Initial residual = 0.0197477, Final residual = 0.00193949, No Iterations 4
GAMG:  Solving for p, Initial residual = 0.00611137, Final residual = 0.000365024, No Iterations 3
time step continuity errors : sum local = 9.5779e-07, global = 5.69957e-08, cumulative = -2.67933e-06
smoothSolver:  Solving for epsilon, Initial residual = 0.000398508, Final residual = 2.64366e-05, No Iterations 4
smoothSolver:  Solving for k, Initial residual = 0.0016559, Final residual = 0.000109632, No Iterations 4
ExecutionTime = 1.12 s  ClockTime = 1 s

Time = 0.0051

smoothSolver:  Solving for Ux, Initial residual = 0.00304452, Final residual = 0.000260391, No Iterations 4
smoothSolver:  Solving for Uy, Initial residual = 0.0206044, Final residual = 0.00202436, No Iterations 4
GAMG:  Solving for p, Initial residual = 0.00583806, Final residual = 0.000479776, No Iterations 2
time step continuity errors : sum local = 1.27813e-06, global = 2.06862e-08, cumulative = -2.65864e-06
smoothSolver:  Solving for epsilon, Initial residual = 0.00038613, Final residual = 2.417e-05, No Iterations 4
smoothSolver:  Solving for k, Initial residual = 0.00163356, Final residual = 0.00010484, No Iterations 4
ExecutionTime = 1.14 s  ClockTime = 1 s

Time = 0.0052

smoothSolver:  Solving for Ux, Initial residual = 0.00285371, Final residual = 0.000261136, No Iterations 4
smoothSolver:  Solving for Uy, Initial residual = 0.019356, Final residual = 0.00135229, No Iterations 5
GAMG:  Solving for p, Initial residual = 0.00566547, Final residual = 0.00054534, No Iterations 2
time step continuity errors : sum local = 1.45604e-06, global = 2.92486e-08, cumulative = -2.62939e-06
smoothSolver:  Solving for epsilon, Initial residual = 0.000359948, Final residual = 2.42598e-05, No Iterations 4
smoothSolver:  Solving for k, Initial residual = 0.00152475, Final residual = 9.97431e-05, No Iterations 4
ExecutionTime = 1.16 s  ClockTime = 1 s

Time = 0.0053

smoothSolver:  Solving for Ux, Initial residual = 0.00277777, Final residual = 0.000260918, No Iterations 4
smoothSolver:  Solving for Uy, Initial residual = 0.0190616, Final residual = 0.00135844, No Iterations 5
GAMG:  Solving for p, Initial residual = 0.00546186, Final residual = 0.000525811, No Iterations 2
time step continuity errors : sum local = 1.41008e-06, global = 4.44032e-08, cumulative = -2.58499e-06
smoothSolver:  Solving for epsilon, Initial residual = 0.000355891, Final residual = 2.21956e-05, No Iterations 4
smoothSolver:  Solving for k, Initial residual = 0.00150557, Final residual = 9.62019e-05, No Iterations 4
ExecutionTime = 1.18 s  ClockTime = 2 s

Time = 0.0054

smoothSolver:  Solving for Ux, Initial residual = 0.00269913, Final residual = 0.000260202, No Iterations 4
smoothSolver:  Solving for Uy, Initial residual = 0.0187366, Final residual = 0.00135792, No Iterations 5
GAMG:  Solving for p, Initial residual = 0.00523175, Final residual = 0.000485583, No Iterations 2
time step continuity errors : sum local = 1.30921e-06, global = 4.57564e-08, cumulative = -2.53923e-06
smoothSolver:  Solving for epsilon, Initial residual = 0.000335341, Final residual = 2.24515e-05, No Iterations 4
smoothSolver:  Solving for k, Initial residual = 0.00143021, Final residual = 9.22378e-05, No Iterations 4
ExecutionTime = 1.2 s  ClockTime = 2 s

Time = 0.0055

smoothSolver:  Solving for Ux, Initial residual = 0.00260981, Final residual = 0.000259583, No Iterations 4
smoothSolver:  Solving for Uy, Initial residual = 0.0181825, Final residual = 0.00134274, No Iterations 5
GAMG:  Solving for p, Initial residual = 0.00500512, Final residual = 0.00045696, No Iterations 2
time step continuity errors : sum local = 1.2381e-06, global = 3.69284e-08, cumulative = -2.5023e-06
smoothSolver:  Solving for epsilon, Initial residual = 0.000337493, Final residual = 2.0416e-05, No Iterations 4
smoothSolver:  Solving for k, Initial residual = 0.00142193, Final residual = 0.000142082, No Iterations 3
ExecutionTime = 1.23 s  ClockTime = 2 s

Time = 0.0056

smoothSolver:  Solving for Ux, Initial residual = 0.00253229, Final residual = 0.000171479, No Iterations 5
smoothSolver:  Solving for Uy, Initial residual = 0.0175818, Final residual = 0.00131357, No Iterations 5
GAMG:  Solving for p, Initial residual = 0.0048081, Final residual = 0.000453982, No Iterations 2
time step continuity errors : sum local = 1.23477e-06, global = 2.56043e-08, cumulative = -2.4767e-06
smoothSolver:  Solving for epsilon, Initial residual = 0.000315652, Final residual = 2.03639e-05, No Iterations 4
smoothSolver:  Solving for k, Initial residual = 0.0013547, Final residual = 8.53984e-05, No Iterations 4
ExecutionTime = 1.25 s  ClockTime = 2 s

Time = 0.0057

smoothSolver:  Solving for Ux, Initial residual = 0.00246109, Final residual = 0.000168597, No Iterations 5
smoothSolver:  Solving for Uy, Initial residual = 0.0170768, Final residual = 0.00127688, No Iterations 5
GAMG:  Solving for p, Initial residual = 0.00462494, Final residual = 0.000454614, No Iterations 2
time step continuity errors : sum local = 1.24004e-06, global = 1.44076e-08, cumulative = -2.46229e-06
smoothSolver:  Solving for epsilon, Initial residual = 0.000324702, Final residual = 3.11928e-05, No Iterations 3
smoothSolver:  Solving for k, Initial residual = 0.00134808, Final residual = 0.000133316, No Iterations 3
ExecutionTime = 1.26 s  ClockTime = 2 s

Time = 0.0058

smoothSolver:  Solving for Ux, Initial residual = 0.00240371, Final residual = 0.000164778, No Iterations 5
smoothSolver:  Solving for Uy, Initial residual = 0.016578, Final residual = 0.00123318, No Iterations 5
GAMG:  Solving for p, Initial residual = 0.00445533, Final residual = 0.000243066, No Iterations 3
time step continuity errors : sum local = 6.63886e-07, global = 1.78921e-08, cumulative = -2.4444e-06
smoothSolver:  Solving for epsilon, Initial residual = 0.000311716, Final residual = 1.94369e-05, No Iterations 4
smoothSolver:  Solving for k, Initial residual = 0.00128596, Final residual = 8.0795e-05, No Iterations 4
ExecutionTime = 1.29 s  ClockTime = 2 s

Time = 0.0059

smoothSolver:  Solving for Ux, Initial residual = 0.00242577, Final residual = 0.000161057, No Iterations 5
smoothSolver:  Solving for Uy, Initial residual = 0.0166016, Final residual = 0.00118892, No Iterations 5
GAMG:  Solving for p, Initial residual = 0.00424957, Final residual = 0.00037437, No Iterations 2
time step continuity errors : sum local = 1.02276e-06, global = -2.77796e-08, cumulative = -2.47218e-06
smoothSolver:  Solving for epsilon, Initial residual = 0.00032521, Final residual = 3.02192e-05, No Iterations 3
smoothSolver:  Solving for k, Initial residual = 0.00129576, Final residual = 0.000127215, No Iterations 3
ExecutionTime = 1.32 s  ClockTime = 2 s

Time = 0.006

smoothSolver:  Solving for Ux, Initial residual = 0.00227906, Final residual = 0.000158517, No Iterations 5
smoothSolver:  Solving for Uy, Initial residual = 0.0152779, Final residual = 0.00113762, No Iterations 5
GAMG:  Solving for p, Initial residual = 0.00414454, Final residual = 0.000230939, No Iterations 3
time step continuity errors : sum local = 6.29402e-07, global = -1.2079e-08, cumulative = -2.48426e-06
smoothSolver:  Solving for epsilon, Initial residual = 0.000309009, Final residual = 1.87083e-05, No Iterations 4
smoothSolver:  Solving for k, Initial residual = 0.00123618, Final residual = 7.71343e-05, No Iterations 4
ExecutionTime = 1.35 s  ClockTime = 2 s

Time = 0.0061

smoothSolver:  Solving for Ux, Initial residual = 0.00229861, Final residual = 0.000153643, No Iterations 5
smoothSolver:  Solving for Uy, Initial residual = 0.0153333, Final residual = 0.00109561, No Iterations 5
GAMG:  Solving for p, Initial residual = 0.00398356, Final residual = 0.000367022, No Iterations 2
time step continuity errors : sum local = 9.9654e-07, global = -3.03519e-08, cumulative = -2.51461e-06
smoothSolver:  Solving for epsilon, Initial residual = 0.000322202, Final residual = 2.92537e-05, No Iterations 3
smoothSolver:  Solving for k, Initial residual = 0.0012433, Final residual = 0.000121782, No Iterations 3
ExecutionTime = 1.37 s  ClockTime = 2 s

Time = 0.0062

smoothSolver:  Solving for Ux, Initial residual = 0.00215483, Final residual = 0.000149658, No Iterations 5
smoothSolver:  Solving for Uy, Initial residual = 0.014191, Final residual = 0.00105446, No Iterations 5
GAMG:  Solving for p, Initial residual = 0.00390882, Final residual = 0.000226044, No Iterations 3
time step continuity errors : sum local = 6.12415e-07, global = -7.58318e-09, cumulative = -2.52219e-06
smoothSolver:  Solving for epsilon, Initial residual = 0.000306652, Final residual = 3.03588e-05, No Iterations 3
smoothSolver:  Solving for k, Initial residual = 0.00118665, Final residual = 7.49386e-05, No Iterations 4
ExecutionTime = 1.4 s  ClockTime = 2 s

Time = 0.0063

smoothSolver:  Solving for Ux, Initial residual = 0.0021779, Final residual = 0.000143482, No Iterations 5
smoothSolver:  Solving for Uy, Initial residual = 0.0144452, Final residual = 0.00102274, No Iterations 5
GAMG:  Solving for p, Initial residual = 0.00378426, Final residual = 0.000362931, No Iterations 2
time step continuity errors : sum local = 9.80447e-07, global = -1.09807e-08, cumulative = -2.53317e-06
smoothSolver:  Solving for epsilon, Initial residual = 0.000321207, Final residual = 2.92524e-05, No Iterations 3
smoothSolver:  Solving for k, Initial residual = 0.00120706, Final residual = 0.00011897, No Iterations 3
ExecutionTime = 1.42 s  ClockTime = 2 s

Time = 0.0064

smoothSolver:  Solving for Ux, Initial residual = 0.00203321, Final residual = 0.000139764, No Iterations 5
smoothSolver:  Solving for Uy, Initial residual = 0.0134662, Final residual = 0.000989659, No Iterations 5
GAMG:  Solving for p, Initial residual = 0.00373934, Final residual = 0.000225766, No Iterations 3
time step continuity errors : sum local = 6.09288e-07, global = 5.68919e-09, cumulative = -2.52749e-06
smoothSolver:  Solving for epsilon, Initial residual = 0.000304406, Final residual = 3.03456e-05, No Iterations 3
smoothSolver:  Solving for k, Initial residual = 0.00114633, Final residual = 7.32742e-05, No Iterations 4
ExecutionTime = 1.44 s  ClockTime = 2 s

Time = 0.0065

smoothSolver:  Solving for Ux, Initial residual = 0.00205635, Final residual = 0.000203136, No Iterations 4
smoothSolver:  Solving for Uy, Initial residual = 0.0140334, Final residual = 0.000963377, No Iterations 5
GAMG:  Solving for p, Initial residual = 0.00361743, Final residual = 0.000358371, No Iterations 2
time step continuity errors : sum local = 9.65961e-07, global = 3.23863e-09, cumulative = -2.52425e-06
smoothSolver:  Solving for epsilon, Initial residual = 0.000314649, Final residual = 2.8928e-05, No Iterations 3
smoothSolver:  Solving for k, Initial residual = 0.00117223, Final residual = 0.000116713, No Iterations 3
ExecutionTime = 1.46 s  ClockTime = 2 s

Time = 0.0066

smoothSolver:  Solving for Ux, Initial residual = 0.00192921, Final residual = 0.000132606, No Iterations 5
smoothSolver:  Solving for Uy, Initial residual = 0.0130461, Final residual = 0.000938122, No Iterations 5
GAMG:  Solving for p, Initial residual = 0.00357961, Final residual = 0.000227016, No Iterations 3
time step continuity errors : sum local = 6.11771e-07, global = 1.19831e-08, cumulative = -2.51226e-06
smoothSolver:  Solving for epsilon, Initial residual = 0.000296882, Final residual = 2.96071e-05, No Iterations 3
smoothSolver:  Solving for k, Initial residual = 0.00111237, Final residual = 7.15599e-05, No Iterations 4
ExecutionTime = 1.49 s  ClockTime = 2 s

Time = 0.0067

smoothSolver:  Solving for Ux, Initial residual = 0.00196635, Final residual = 0.000190898, No Iterations 4
smoothSolver:  Solving for Uy, Initial residual = 0.0141259, Final residual = 0.000948111, No Iterations 5
GAMG:  Solving for p, Initial residual = 0.00347961, Final residual = 0.000188059, No Iterations 3
time step continuity errors : sum local = 5.06652e-07, global = 8.64026e-09, cumulative = -2.50362e-06
smoothSolver:  Solving for epsilon, Initial residual = 0.000305865, Final residual = 2.82551e-05, No Iterations 3
smoothSolver:  Solving for k, Initial residual = 0.00112066, Final residual = 7.11817e-05, No Iterations 4
ExecutionTime = 1.51 s  ClockTime = 2 s

Time = 0.0068

smoothSolver:  Solving for Ux, Initial residual = 0.00188749, Final residual = 0.000186729, No Iterations 4
smoothSolver:  Solving for Uy, Initial residual = 0.0138435, Final residual = 0.000970862, No Iterations 5
GAMG:  Solving for p, Initial residual = 0.00341377, Final residual = 0.000184461, No Iterations 3
time step continuity errors : sum local = 4.96843e-07, global = 7.41831e-09, cumulative = -2.49621e-06
smoothSolver:  Solving for epsilon, Initial residual = 0.000290244, Final residual = 2.88837e-05, No Iterations 3
smoothSolver:  Solving for k, Initial residual = 0.00107307, Final residual = 7.02635e-05, No Iterations 4
ExecutionTime = 1.53 s  ClockTime = 2 s

Time = 0.0069

smoothSolver:  Solving for Ux, Initial residual = 0.0018465, Final residual = 0.000181231, No Iterations 4
smoothSolver:  Solving for Uy, Initial residual = 0.0139825, Final residual = 0.00100109, No Iterations 5
GAMG:  Solving for p, Initial residual = 0.00335888, Final residual = 0.000182709, No Iterations 3
time step continuity errors : sum local = 4.9218e-07, global = 7.18926e-09, cumulative = -2.48902e-06
smoothSolver:  Solving for epsilon, Initial residual = 0.000296982, Final residual = 2.77696e-05, No Iterations 3
smoothSolver:  Solving for k, Initial residual = 0.0010806, Final residual = 6.97529e-05, No Iterations 4
ExecutionTime = 1.55 s  ClockTime = 2 s

Time = 0.007

smoothSolver:  Solving for Ux, Initial residual = 0.00181214, Final residual = 0.00017585, No Iterations 4
smoothSolver:  Solving for Uy, Initial residual = 0.0142866, Final residual = 0.00104409, No Iterations 5
GAMG:  Solving for p, Initial residual = 0.00330855, Final residual = 0.000178402, No Iterations 3
time step continuity errors : sum local = 4.80697e-07, global = 6.77622e-09, cumulative = -2.48224e-06
smoothSolver:  Solving for epsilon, Initial residual = 0.000278757, Final residual = 2.77484e-05, No Iterations 3
smoothSolver:  Solving for k, Initial residual = 0.00104181, Final residual = 6.85639e-05, No Iterations 4
ExecutionTime = 1.58 s  ClockTime = 2 s

Time = 0.0071

smoothSolver:  Solving for Ux, Initial residual = 0.00177532, Final residual = 0.000172037, No Iterations 4
smoothSolver:  Solving for Uy, Initial residual = 0.0145862, Final residual = 0.00109207, No Iterations 5
GAMG:  Solving for p, Initial residual = 0.00325832, Final residual = 0.000172594, No Iterations 3
time step continuity errors : sum local = 4.6517e-07, global = 6.3818e-09, cumulative = -2.47586e-06
smoothSolver:  Solving for epsilon, Initial residual = 0.000282555, Final residual = 2.66796e-05, No Iterations 3
smoothSolver:  Solving for k, Initial residual = 0.00104278, Final residual = 6.78385e-05, No Iterations 4
ExecutionTime = 1.6 s  ClockTime = 2 s

Time = 0.0072

smoothSolver:  Solving for Ux, Initial residual = 0.00173744, Final residual = 0.000170643, No Iterations 4
smoothSolver:  Solving for Uy, Initial residual = 0.0147644, Final residual = 0.00114062, No Iterations 5
GAMG:  Solving for p, Initial residual = 0.00320317, Final residual = 0.00016529, No Iterations 3
time step continuity errors : sum local = 4.45611e-07, global = 5.97101e-09, cumulative = -2.46989e-06
smoothSolver:  Solving for epsilon, Initial residual = 0.000265842, Final residual = 2.63046e-05, No Iterations 3
smoothSolver:  Solving for k, Initial residual = 0.000998998, Final residual = 6.68369e-05, No Iterations 4
ExecutionTime = 1.62 s  ClockTime = 2 s

Time = 0.0073

smoothSolver:  Solving for Ux, Initial residual = 0.00170444, Final residual = 0.000112824, No Iterations 5
smoothSolver:  Solving for Uy, Initial residual = 0.0148939, Final residual = 0.00118654, No Iterations 5
GAMG:  Solving for p, Initial residual = 0.00315053, Final residual = 0.000161655, No Iterations 3
time step continuity errors : sum local = 4.35958e-07, global = 6.57781e-09, cumulative = -2.46331e-06
smoothSolver:  Solving for epsilon, Initial residual = 0.000268596, Final residual = 2.5486e-05, No Iterations 3
smoothSolver:  Solving for k, Initial residual = 0.000988136, Final residual = 6.601e-05, No Iterations 4
ExecutionTime = 1.64 s  ClockTime = 2 s

Time = 0.0074

smoothSolver:  Solving for Ux, Initial residual = 0.0016797, Final residual = 0.000114952, No Iterations 5
smoothSolver:  Solving for Uy, Initial residual = 0.0150572, Final residual = 0.00123761, No Iterations 5
GAMG:  Solving for p, Initial residual = 0.00308997, Final residual = 0.00029879, No Iterations 2
time step continuity errors : sum local = 8.06207e-07, global = 3.43191e-09, cumulative = -2.45988e-06
smoothSolver:  Solving for epsilon, Initial residual = 0.000252456, Final residual = 2.5149e-05, No Iterations 3
smoothSolver:  Solving for k, Initial residual = 0.000955531, Final residual = 6.53032e-05, No Iterations 4
ExecutionTime = 1.66 s  ClockTime = 2 s

Time = 0.0075

smoothSolver:  Solving for Ux, Initial residual = 0.00162532, Final residual = 0.000119512, No Iterations 5
smoothSolver:  Solving for Uy, Initial residual = 0.0145015, Final residual = 0.00127105, No Iterations 5
GAMG:  Solving for p, Initial residual = 0.00304324, Final residual = 0.000163896, No Iterations 3
time step continuity errors : sum local = 4.42396e-07, global = 7.35349e-09, cumulative = -2.45252e-06
smoothSolver:  Solving for epsilon, Initial residual = 0.000254025, Final residual = 2.44943e-05, No Iterations 3
smoothSolver:  Solving for k, Initial residual = 0.000943025, Final residual = 6.49773e-05, No Iterations 4
ExecutionTime = 1.68 s  ClockTime = 2 s

Time = 0.0076

smoothSolver:  Solving for Ux, Initial residual = 0.00165854, Final residual = 0.000124711, No Iterations 5
smoothSolver:  Solving for Uy, Initial residual = 0.0151875, Final residual = 0.00131296, No Iterations 5
GAMG:  Solving for p, Initial residual = 0.00294414, Final residual = 0.000245407, No Iterations 2
time step continuity errors : sum local = 6.6337e-07, global = 2.74504e-09, cumulative = -2.44978e-06
smoothSolver:  Solving for epsilon, Initial residual = 0.000239538, Final residual = 1.44484e-05, No Iterations 4
smoothSolver:  Solving for k, Initial residual = 0.000906381, Final residual = 6.4321e-05, No Iterations 4
ExecutionTime = 1.7 s  ClockTime = 2 s

Time = 0.0077

smoothSolver:  Solving for Ux, Initial residual = 0.00159951, Final residual = 0.000131294, No Iterations 5
smoothSolver:  Solving for Uy, Initial residual = 0.0141796, Final residual = 0.00133515, No Iterations 5
GAMG:  Solving for p, Initial residual = 0.00285898, Final residual = 0.00026419, No Iterations 2
time step continuity errors : sum local = 7.14687e-07, global = 1.10889e-09, cumulative = -2.44867e-06
smoothSolver:  Solving for epsilon, Initial residual = 0.000238505, Final residual = 2.33365e-05, No Iterations 3
smoothSolver:  Solving for k, Initial residual = 0.000885333, Final residual = 6.42134e-05, No Iterations 4
ExecutionTime = 1.73 s  ClockTime = 2 s

Time = 0.0078

smoothSolver:  Solving for Ux, Initial residual = 0.00160039, Final residual = 0.000137768, No Iterations 5
smoothSolver:  Solving for Uy, Initial residual = 0.0140125, Final residual = 0.00136278, No Iterations 5
GAMG:  Solving for p, Initial residual = 0.00275318, Final residual = 0.000243314, No Iterations 2
time step continuity errors : sum local = 6.58872e-07, global = 1.50425e-09, cumulative = -2.44717e-06
smoothSolver:  Solving for epsilon, Initial residual = 0.000225755, Final residual = 1.3873e-05, No Iterations 4
smoothSolver:  Solving for k, Initial residual = 0.000851452, Final residual = 6.43843e-05, No Iterations 4
ExecutionTime = 1.75 s  ClockTime = 2 s

Time = 0.0079

smoothSolver:  Solving for Ux, Initial residual = 0.00160973, Final residual = 0.000144264, No Iterations 5
smoothSolver:  Solving for Uy, Initial residual = 0.0138119, Final residual = 0.00095859, No Iterations 6
GAMG:  Solving for p, Initial residual = 0.00263691, Final residual = 0.000221875, No Iterations 2
time step continuity errors : sum local = 6.01658e-07, global = 1.63039e-09, cumulative = -2.44554e-06
smoothSolver:  Solving for epsilon, Initial residual = 0.000226846, Final residual = 1.36764e-05, No Iterations 4
smoothSolver:  Solving for k, Initial residual = 0.00084074, Final residual = 6.46532e-05, No Iterations 4
ExecutionTime = 1.77 s  ClockTime = 2 s

Time = 0.008

smoothSolver:  Solving for Ux, Initial residual = 0.00162703, Final residual = 0.000150719, No Iterations 5
smoothSolver:  Solving for Uy, Initial residual = 0.0136145, Final residual = 0.000968045, No Iterations 6
GAMG:  Solving for p, Initial residual = 0.00251753, Final residual = 0.000217051, No Iterations 2
time step continuity errors : sum local = 5.89449e-07, global = 1.21837e-09, cumulative = -2.44432e-06
smoothSolver:  Solving for epsilon, Initial residual = 0.000215498, Final residual = 1.34918e-05, No Iterations 4
bounding epsilon, min: -0.81591 max: 1.27522e+06 average: 2061.76
smoothSolver:  Solving for k, Initial residual = 0.000813764, Final residual = 6.45926e-05, No Iterations 4
ExecutionTime = 1.8 s  ClockTime = 2 s

Time = 0.0081

smoothSolver:  Solving for Ux, Initial residual = 0.00165636, Final residual = 0.000155988, No Iterations 5
smoothSolver:  Solving for Uy, Initial residual = 0.0134798, Final residual = 0.000970371, No Iterations 6
GAMG:  Solving for p, Initial residual = 0.00240478, Final residual = 0.000223972, No Iterations 2
time step continuity errors : sum local = 6.09147e-07, global = 7.9307e-10, cumulative = -2.44352e-06
smoothSolver:  Solving for epsilon, Initial residual = 0.000218069, Final residual = 1.35196e-05, No Iterations 4
smoothSolver:  Solving for k, Initial residual = 0.000804478, Final residual = 6.51107e-05, No Iterations 4
ExecutionTime = 1.82 s  ClockTime = 2 s

Time = 0.0082

smoothSolver:  Solving for Ux, Initial residual = 0.00169034, Final residual = 0.00015968, No Iterations 5
smoothSolver:  Solving for Uy, Initial residual = 0.0135109, Final residual = 0.000965996, No Iterations 6
GAMG:  Solving for p, Initial residual = 0.00230321, Final residual = 0.000138918, No Iterations 3
time step continuity errors : sum local = 3.78397e-07, global = 2.47194e-09, cumulative = -2.44105e-06
smoothSolver:  Solving for epsilon, Initial residual = 0.000209457, Final residual = 1.34657e-05, No Iterations 4
smoothSolver:  Solving for k, Initial residual = 0.000796008, Final residual = 6.50891e-05, No Iterations 4
ExecutionTime = 1.84 s  ClockTime = 2 s

Time = 0.0083

smoothSolver:  Solving for Ux, Initial residual = 0.00176466, Final residual = 0.000161703, No Iterations 5
smoothSolver:  Solving for Uy, Initial residual = 0.0139834, Final residual = 0.00139577, No Iterations 5
GAMG:  Solving for p, Initial residual = 0.002187, Final residual = 0.000200813, No Iterations 2
time step continuity errors : sum local = 5.48467e-07, global = 7.16369e-10, cumulative = -2.44034e-06
smoothSolver:  Solving for epsilon, Initial residual = 0.000214158, Final residual = 1.36814e-05, No Iterations 4
smoothSolver:  Solving for k, Initial residual = 0.000801991, Final residual = 6.52923e-05, No Iterations 4
ExecutionTime = 1.87 s  ClockTime = 2 s

Time = 0.0084

smoothSolver:  Solving for Ux, Initial residual = 0.00172647, Final residual = 0.000162746, No Iterations 5
smoothSolver:  Solving for Uy, Initial residual = 0.0134166, Final residual = 0.000943033, No Iterations 6
GAMG:  Solving for p, Initial residual = 0.0021173, Final residual = 0.000147578, No Iterations 3
time step continuity errors : sum local = 4.03273e-07, global = -1.46747e-09, cumulative = -2.4418e-06
smoothSolver:  Solving for epsilon, Initial residual = 0.000209599, Final residual = 1.38747e-05, No Iterations 4
smoothSolver:  Solving for k, Initial residual = 0.00079755, Final residual = 6.50198e-05, No Iterations 4
ExecutionTime = 1.89 s  ClockTime = 2 s

Time = 0.0085

smoothSolver:  Solving for Ux, Initial residual = 0.00181035, Final residual = 0.00016331, No Iterations 5
smoothSolver:  Solving for Uy, Initial residual = 0.0139328, Final residual = 0.00134229, No Iterations 5
GAMG:  Solving for p, Initial residual = 0.00203484, Final residual = 0.000129538, No Iterations 3
time step continuity errors : sum local = 3.54399e-07, global = -1.35703e-09, cumulative = -2.44316e-06
smoothSolver:  Solving for epsilon, Initial residual = 0.000216111, Final residual = 1.41896e-05, No Iterations 4
smoothSolver:  Solving for k, Initial residual = 0.000803523, Final residual = 6.49399e-05, No Iterations 4
ExecutionTime = 1.91 s  ClockTime = 2 s

Time = 0.0086

smoothSolver:  Solving for Ux, Initial residual = 0.00180179, Final residual = 0.000161687, No Iterations 5
smoothSolver:  Solving for Uy, Initial residual = 0.0137544, Final residual = 0.00131267, No Iterations 5
GAMG:  Solving for p, Initial residual = 0.00200778, Final residual = 0.000131267, No Iterations 3
time step continuity errors : sum local = 3.59382e-07, global = -2.31338e-09, cumulative = -2.44547e-06
smoothSolver:  Solving for epsilon, Initial residual = 0.000212641, Final residual = 1.43322e-05, No Iterations 4
smoothSolver:  Solving for k, Initial residual = 0.000799423, Final residual = 6.42068e-05, No Iterations 4
ExecutionTime = 1.93 s  ClockTime = 2 s

Time = 0.0087

smoothSolver:  Solving for Ux, Initial residual = 0.00179854, Final residual = 0.000159264, No Iterations 5
smoothSolver:  Solving for Uy, Initial residual = 0.0135877, Final residual = 0.00127323, No Iterations 5
GAMG:  Solving for p, Initial residual = 0.00201933, Final residual = 0.000134933, No Iterations 3
time step continuity errors : sum local = 3.69545e-07, global = -2.84086e-09, cumulative = -2.44831e-06
smoothSolver:  Solving for epsilon, Initial residual = 0.000219944, Final residual = 1.4616e-05, No Iterations 4
smoothSolver:  Solving for k, Initial residual = 0.000809901, Final residual = 6.36261e-05, No Iterations 4
ExecutionTime = 1.96 s  ClockTime = 2 s

Time = 0.0088

smoothSolver:  Solving for Ux, Initial residual = 0.00179034, Final residual = 0.000155899, No Iterations 5
smoothSolver:  Solving for Uy, Initial residual = 0.0135039, Final residual = 0.00122912, No Iterations 5
GAMG:  Solving for p, Initial residual = 0.0020391, Final residual = 0.000137254, No Iterations 3
time step continuity errors : sum local = 3.7596e-07, global = -2.96506e-09, cumulative = -2.45128e-06
smoothSolver:  Solving for epsilon, Initial residual = 0.000217849, Final residual = 1.47005e-05, No Iterations 4
smoothSolver:  Solving for k, Initial residual = 0.000805278, Final residual = 6.26029e-05, No Iterations 4
ExecutionTime = 1.98 s  ClockTime = 2 s

Time = 0.0089

smoothSolver:  Solving for Ux, Initial residual = 0.0017824, Final residual = 0.000151649, No Iterations 5
smoothSolver:  Solving for Uy, Initial residual = 0.0134638, Final residual = 0.00118419, No Iterations 5
GAMG:  Solving for p, Initial residual = 0.00207123, Final residual = 0.000139153, No Iterations 3
time step continuity errors : sum local = 3.81186e-07, global = -3.02444e-09, cumulative = -2.4543e-06
smoothSolver:  Solving for epsilon, Initial residual = 0.00022731, Final residual = 1.4915e-05, No Iterations 4
smoothSolver:  Solving for k, Initial residual = 0.000813724, Final residual = 6.18658e-05, No Iterations 4
ExecutionTime = 2 s  ClockTime = 2 s

Time = 0.009

smoothSolver:  Solving for Ux, Initial residual = 0.00176857, Final residual = 0.000146967, No Iterations 5
smoothSolver:  Solving for Uy, Initial residual = 0.0134237, Final residual = 0.00113947, No Iterations 5
GAMG:  Solving for p, Initial residual = 0.00211332, Final residual = 0.000140525, No Iterations 3
time step continuity errors : sum local = 3.8495e-07, global = -3.12457e-09, cumulative = -2.45743e-06
smoothSolver:  Solving for epsilon, Initial residual = 0.000225817, Final residual = 1.48758e-05, No Iterations 4
smoothSolver:  Solving for k, Initial residual = 0.000806716, Final residual = 6.0506e-05, No Iterations 4
ExecutionTime = 2.03 s  ClockTime = 2 s

Time = 0.0091

smoothSolver:  Solving for Ux, Initial residual = 0.00175157, Final residual = 0.000141887, No Iterations 5
smoothSolver:  Solving for Uy, Initial residual = 0.0133501, Final residual = 0.00109411, No Iterations 5
GAMG:  Solving for p, Initial residual = 0.00217557, Final residual = 0.000142443, No Iterations 3
time step continuity errors : sum local = 3.90181e-07, global = -3.3439e-09, cumulative = -2.46077e-06
smoothSolver:  Solving for epsilon, Initial residual = 0.000235798, Final residual = 1.49192e-05, No Iterations 4
smoothSolver:  Solving for k, Initial residual = 0.000813558, Final residual = 5.93257e-05, No Iterations 4
ExecutionTime = 2.05 s  ClockTime = 2 s

Time = 0.0092

smoothSolver:  Solving for Ux, Initial residual = 0.00172706, Final residual = 0.000136015, No Iterations 5
smoothSolver:  Solving for Uy, Initial residual = 0.0132533, Final residual = 0.00104857, No Iterations 5
GAMG:  Solving for p, Initial residual = 0.0022298, Final residual = 0.000143904, No Iterations 3
time step continuity errors : sum local = 3.94137e-07, global = -3.51284e-09, cumulative = -2.46429e-06
smoothSolver:  Solving for epsilon, Initial residual = 0.000233463, Final residual = 1.4878e-05, No Iterations 4
smoothSolver:  Solving for k, Initial residual = 0.000807311, Final residual = 5.76127e-05, No Iterations 4
ExecutionTime = 2.08 s  ClockTime = 2 s

Time = 0.0093

smoothSolver:  Solving for Ux, Initial residual = 0.00169877, Final residual = 0.000129625, No Iterations 5
smoothSolver:  Solving for Uy, Initial residual = 0.013097, Final residual = 0.00100249, No Iterations 5
GAMG:  Solving for p, Initial residual = 0.00228453, Final residual = 0.000145298, No Iterations 3
time step continuity errors : sum local = 3.97896e-07, global = -3.72865e-09, cumulative = -2.46801e-06
smoothSolver:  Solving for epsilon, Initial residual = 0.00024292, Final residual = 1.47152e-05, No Iterations 4
smoothSolver:  Solving for k, Initial residual = 0.000806197, Final residual = 5.59426e-05, No Iterations 4
ExecutionTime = 2.1 s  ClockTime = 2 s

Time = 0.0094

smoothSolver:  Solving for Ux, Initial residual = 0.001665, Final residual = 0.000122784, No Iterations 5
smoothSolver:  Solving for Uy, Initial residual = 0.0129113, Final residual = 0.000959412, No Iterations 5
GAMG:  Solving for p, Initial residual = 0.0023288, Final residual = 0.000145725, No Iterations 3
time step continuity errors : sum local = 3.99032e-07, global = -3.76943e-09, cumulative = -2.47178e-06
smoothSolver:  Solving for epsilon, Initial residual = 0.000237887, Final residual = 1.45956e-05, No Iterations 4
smoothSolver:  Solving for k, Initial residual = 0.000796565, Final residual = 5.38872e-05, No Iterations 4
ExecutionTime = 2.12 s  ClockTime = 2 s

Time = 0.0095

smoothSolver:  Solving for Ux, Initial residual = 0.00162986, Final residual = 0.000115789, No Iterations 5
smoothSolver:  Solving for Uy, Initial residual = 0.0127401, Final residual = 0.000924058, No Iterations 5
GAMG:  Solving for p, Initial residual = 0.00237834, Final residual = 0.000145325, No Iterations 3
time step continuity errors : sum local = 3.9792e-07, global = -3.60382e-09, cumulative = -2.47539e-06
smoothSolver:  Solving for epsilon, Initial residual = 0.000246885, Final residual = 2.39182e-05, No Iterations 3
smoothSolver:  Solving for k, Initial residual = 0.000798799, Final residual = 5.21735e-05, No Iterations 4
ExecutionTime = 2.15 s  ClockTime = 3 s

Time = 0.0096

smoothSolver:  Solving for Ux, Initial residual = 0.00159419, Final residual = 0.000109581, No Iterations 5
smoothSolver:  Solving for Uy, Initial residual = 0.0125951, Final residual = 0.000902095, No Iterations 5
GAMG:  Solving for p, Initial residual = 0.00242293, Final residual = 0.000144586, No Iterations 3
time step continuity errors : sum local = 3.95871e-07, global = -3.16636e-09, cumulative = -2.47855e-06
smoothSolver:  Solving for epsilon, Initial residual = 0.000241852, Final residual = 2.40428e-05, No Iterations 3
smoothSolver:  Solving for k, Initial residual = 0.000791563, Final residual = 5.03664e-05, No Iterations 4
ExecutionTime = 2.17 s  ClockTime = 3 s

Time = 0.0097

smoothSolver:  Solving for Ux, Initial residual = 0.00155682, Final residual = 0.000104083, No Iterations 5
smoothSolver:  Solving for Uy, Initial residual = 0.0125125, Final residual = 0.000899428, No Iterations 5
GAMG:  Solving for p, Initial residual = 0.00246157, Final residual = 0.000142801, No Iterations 3
time step continuity errors : sum local = 3.90973e-07, global = -2.52488e-09, cumulative = -2.48108e-06
smoothSolver:  Solving for epsilon, Initial residual = 0.000251877, Final residual = 2.37559e-05, No Iterations 3
smoothSolver:  Solving for k, Initial residual = 0.000787099, Final residual = 7.79751e-05, No Iterations 3
ExecutionTime = 2.19 s  ClockTime = 3 s

Time = 0.0098

smoothSolver:  Solving for Ux, Initial residual = 0.00152336, Final residual = 9.94043e-05, No Iterations 5
smoothSolver:  Solving for Uy, Initial residual = 0.0124852, Final residual = 0.000906338, No Iterations 5
GAMG:  Solving for p, Initial residual = 0.00248614, Final residual = 0.000140658, No Iterations 3
time step continuity errors : sum local = 3.85144e-07, global = -1.79308e-09, cumulative = -2.48287e-06
smoothSolver:  Solving for epsilon, Initial residual = 0.000241709, Final residual = 2.34191e-05, No Iterations 3
smoothSolver:  Solving for k, Initial residual = 0.00077283, Final residual = 7.43889e-05, No Iterations 3
ExecutionTime = 2.22 s  ClockTime = 3 s

Time = 0.0099

smoothSolver:  Solving for Ux, Initial residual = 0.00149378, Final residual = 9.62516e-05, No Iterations 5
smoothSolver:  Solving for Uy, Initial residual = 0.0124698, Final residual = 0.000915801, No Iterations 5
GAMG:  Solving for p, Initial residual = 0.00250466, Final residual = 0.000137886, No Iterations 3
time step continuity errors : sum local = 3.77582e-07, global = -9.88938e-10, cumulative = -2.48386e-06
smoothSolver:  Solving for epsilon, Initial residual = 0.00025085, Final residual = 2.24602e-05, No Iterations 3
smoothSolver:  Solving for k, Initial residual = 0.000768754, Final residual = 7.154e-05, No Iterations 3
ExecutionTime = 2.24 s  ClockTime = 3 s

Time = 0.01

smoothSolver:  Solving for Ux, Initial residual = 0.00148227, Final residual = 9.58239e-05, No Iterations 5
smoothSolver:  Solving for Uy, Initial residual = 0.012477, Final residual = 0.000936488, No Iterations 5
GAMG:  Solving for p, Initial residual = 0.00251133, Final residual = 0.00013526, No Iterations 3
time step continuity errors : sum local = 3.70429e-07, global = -1.55372e-10, cumulative = -2.48402e-06
smoothSolver:  Solving for epsilon, Initial residual = 0.000239526, Final residual = 2.2191e-05, No Iterations 3
smoothSolver:  Solving for k, Initial residual = 0.000754324, Final residual = 6.8228e-05, No Iterations 3
ExecutionTime = 2.26 s  ClockTime = 3 s

Time = 0.0101

smoothSolver:  Solving for Ux, Initial residual = 0.00148036, Final residual = 9.78865e-05, No Iterations 5
smoothSolver:  Solving for Uy, Initial residual = 0.0125004, Final residual = 0.000966985, No Iterations 5
GAMG:  Solving for p, Initial residual = 0.0025118, Final residual = 0.000132108, No Iterations 3
time step continuity errors : sum local = 3.61839e-07, global = 7.63954e-10, cumulative = -2.48325e-06
smoothSolver:  Solving for epsilon, Initial residual = 0.000249923, Final residual = 2.11635e-05, No Iterations 3
smoothSolver:  Solving for k, Initial residual = 0.000744126, Final residual = 6.52084e-05, No Iterations 3
ExecutionTime = 2.29 s  ClockTime = 3 s

Time = 0.0102

smoothSolver:  Solving for Ux, Initial residual = 0.00149087, Final residual = 0.000101722, No Iterations 5
smoothSolver:  Solving for Uy, Initial residual = 0.0125094, Final residual = 0.00100008, No Iterations 5
GAMG:  Solving for p, Initial residual = 0.0025017, Final residual = 0.000129078, No Iterations 3
time step continuity errors : sum local = 3.53615e-07, global = 1.6879e-09, cumulative = -2.48156e-06
smoothSolver:  Solving for epsilon, Initial residual = 0.000237001, Final residual = 2.11419e-05, No Iterations 3
smoothSolver:  Solving for k, Initial residual = 0.000728411, Final residual = 6.24714e-05, No Iterations 3
ExecutionTime = 2.3 s  ClockTime = 3 s

Time = 0.0103

smoothSolver:  Solving for Ux, Initial residual = 0.0015051, Final residual = 0.000107028, No Iterations 5
smoothSolver:  Solving for Uy, Initial residual = 0.0124777, Final residual = 0.00103086, No Iterations 5
GAMG:  Solving for p, Initial residual = 0.00248152, Final residual = 0.000125342, No Iterations 3
time step continuity errors : sum local = 3.4346e-07, global = 2.59138e-09, cumulative = -2.47897e-06
smoothSolver:  Solving for epsilon, Initial residual = 0.000248484, Final residual = 2.01616e-05, No Iterations 3
smoothSolver:  Solving for k, Initial residual = 0.000728879, Final residual = 6.0607e-05, No Iterations 3
ExecutionTime = 2.32 s  ClockTime = 3 s

Time = 0.0104

smoothSolver:  Solving for Ux, Initial residual = 0.00152423, Final residual = 0.000113349, No Iterations 5
smoothSolver:  Solving for Uy, Initial residual = 0.0123981, Final residual = 0.00105746, No Iterations 5
GAMG:  Solving for p, Initial residual = 0.00244873, Final residual = 0.000243588, No Iterations 2
time step continuity errors : sum local = 6.677e-07, global = 3.05736e-10, cumulative = -2.47867e-06
smoothSolver:  Solving for epsilon, Initial residual = 0.000232249, Final residual = 2.03129e-05, No Iterations 3
smoothSolver:  Solving for k, Initial residual = 0.00071167, Final residual = 5.88827e-05, No Iterations 3
ExecutionTime = 2.34 s  ClockTime = 3 s

Time = 0.0105

smoothSolver:  Solving for Ux, Initial residual = 0.00151658, Final residual = 0.000119896, No Iterations 5
smoothSolver:  Solving for Uy, Initial residual = 0.0118961, Final residual = 0.00107035, No Iterations 5
GAMG:  Solving for p, Initial residual = 0.00242447, Final residual = 0.000136018, No Iterations 3
time step continuity errors : sum local = 3.72898e-07, global = 6.122e-09, cumulative = -2.47254e-06
smoothSolver:  Solving for epsilon, Initial residual = 0.000245385, Final residual = 1.94469e-05, No Iterations 3
smoothSolver:  Solving for k, Initial residual = 0.000706917, Final residual = 5.80399e-05, No Iterations 3
ExecutionTime = 2.37 s  ClockTime = 3 s

Time = 0.0106

smoothSolver:  Solving for Ux, Initial residual = 0.00159308, Final residual = 0.000126053, No Iterations 5
smoothSolver:  Solving for Uy, Initial residual = 0.0124365, Final residual = 0.00109083, No Iterations 5
GAMG:  Solving for p, Initial residual = 0.00237231, Final residual = 0.000223968, No Iterations 2
time step continuity errors : sum local = 6.1456e-07, global = 2.24962e-09, cumulative = -2.47029e-06
smoothSolver:  Solving for epsilon, Initial residual = 0.000227367, Final residual = 1.98757e-05, No Iterations 3
smoothSolver:  Solving for k, Initial residual = 0.000690006, Final residual = 5.803e-05, No Iterations 3
ExecutionTime = 2.39 s  ClockTime = 3 s

Time = 0.0107

smoothSolver:  Solving for Ux, Initial residual = 0.00156564, Final residual = 0.000132576, No Iterations 5
smoothSolver:  Solving for Uy, Initial residual = 0.0116646, Final residual = 0.00109323, No Iterations 5
GAMG:  Solving for p, Initial residual = 0.00232059, Final residual = 0.000125708, No Iterations 3
time step continuity errors : sum local = 3.44956e-07, global = 7.76398e-09, cumulative = -2.46253e-06
smoothSolver:  Solving for epsilon, Initial residual = 0.000242903, Final residual = 1.91553e-05, No Iterations 3
smoothSolver:  Solving for k, Initial residual = 0.000694193, Final residual = 5.84187e-05, No Iterations 3
ExecutionTime = 2.41 s  ClockTime = 3 s

Time = 0.0108

smoothSolver:  Solving for Ux, Initial residual = 0.00163259, Final residual = 0.000138874, No Iterations 5
smoothSolver:  Solving for Uy, Initial residual = 0.0119237, Final residual = 0.00110356, No Iterations 5
GAMG:  Solving for p, Initial residual = 0.00225436, Final residual = 0.000199778, No Iterations 2
time step continuity errors : sum local = 5.48517e-07, global = 3.50071e-09, cumulative = -2.45903e-06
smoothSolver:  Solving for epsilon, Initial residual = 0.000224391, Final residual = 1.9974e-05, No Iterations 3
smoothSolver:  Solving for k, Initial residual = 0.000682262, Final residual = 6.02719e-05, No Iterations 3
ExecutionTime = 2.43 s  ClockTime = 3 s

Time = 0.0109

smoothSolver:  Solving for Ux, Initial residual = 0.00160097, Final residual = 0.000144243, No Iterations 5
smoothSolver:  Solving for Uy, Initial residual = 0.0112073, Final residual = 0.00109979, No Iterations 5
GAMG:  Solving for p, Initial residual = 0.00219287, Final residual = 0.000115103, No Iterations 3
time step continuity errors : sum local = 3.15997e-07, global = 8.47032e-09, cumulative = -2.45056e-06
smoothSolver:  Solving for epsilon, Initial residual = 0.000240196, Final residual = 1.9284e-05, No Iterations 3
smoothSolver:  Solving for k, Initial residual = 0.000688435, Final residual = 6.20115e-05, No Iterations 3
ExecutionTime = 2.46 s  ClockTime = 3 s

Time = 0.011

smoothSolver:  Solving for Ux, Initial residual = 0.00166107, Final residual = 0.000148929, No Iterations 5
smoothSolver:  Solving for Uy, Initial residual = 0.0113936, Final residual = 0.00111017, No Iterations 5
GAMG:  Solving for p, Initial residual = 0.00211827, Final residual = 0.000178668, No Iterations 2
time step continuity errors : sum local = 4.9055e-07, global = 4.30961e-09, cumulative = -2.44625e-06
smoothSolver:  Solving for epsilon, Initial residual = 0.000218869, Final residual = 2.03192e-05, No Iterations 3
smoothSolver:  Solving for k, Initial residual = 0.000677635, Final residual = 6.44842e-05, No Iterations 3
ExecutionTime = 2.48 s  ClockTime = 3 s

Time = 0.0111

smoothSolver:  Solving for Ux, Initial residual = 0.00162576, Final residual = 0.000152616, No Iterations 5
smoothSolver:  Solving for Uy, Initial residual = 0.0107993, Final residual = 0.000765361, No Iterations 6
GAMG:  Solving for p, Initial residual = 0.00205361, Final residual = 0.000203613, No Iterations 2
time step continuity errors : sum local = 5.58878e-07, global = 6.97637e-09, cumulative = -2.43927e-06
smoothSolver:  Solving for epsilon, Initial residual = 0.00023746, Final residual = 1.98014e-05, No Iterations 3
smoothSolver:  Solving for k, Initial residual = 0.000691887, Final residual = 6.65047e-05, No Iterations 3
ExecutionTime = 2.51 s  ClockTime = 3 s

Time = 0.0112

smoothSolver:  Solving for Ux, Initial residual = 0.00164894, Final residual = 0.000155997, No Iterations 5
smoothSolver:  Solving for Uy, Initial residual = 0.0106603, Final residual = 0.000764174, No Iterations 6
GAMG:  Solving for p, Initial residual = 0.0019936, Final residual = 0.000119496, No Iterations 3
time step continuity errors : sum local = 3.27918e-07, global = 9.93275e-09, cumulative = -2.42934e-06
smoothSolver:  Solving for epsilon, Initial residual = 0.000217213, Final residual = 2.10832e-05, No Iterations 3
smoothSolver:  Solving for k, Initial residual = 0.000683663, Final residual = 4.26434e-05, No Iterations 4
ExecutionTime = 2.53 s  ClockTime = 3 s

Time = 0.0113

smoothSolver:  Solving for Ux, Initial residual = 0.00170944, Final residual = 0.00015807, No Iterations 5
smoothSolver:  Solving for Uy, Initial residual = 0.0109859, Final residual = 0.000762229, No Iterations 6
GAMG:  Solving for p, Initial residual = 0.00194938, Final residual = 0.000171268, No Iterations 2
time step continuity errors : sum local = 4.69604e-07, global = 6.08329e-09, cumulative = -2.42326e-06
smoothSolver:  Solving for epsilon, Initial residual = 0.000237783, Final residual = 2.05298e-05, No Iterations 3
smoothSolver:  Solving for k, Initial residual = 0.000687646, Final residual = 4.38616e-05, No Iterations 4
ExecutionTime = 2.55 s  ClockTime = 3 s

Time = 0.0114

smoothSolver:  Solving for Ux, Initial residual = 0.00166722, Final residual = 0.00015898, No Iterations 5
smoothSolver:  Solving for Uy, Initial residual = 0.0104016, Final residual = 0.000753128, No Iterations 6
[...]
smoothSolver:  Solving for epsilon, Initial residual = 0.0001089, Final residual = 9.79266e-06, No Iterations 2
smoothSolver:  Solving for k, Initial residual = 0.000127203, Final residual = 6.60438e-06, No Iterations 3
ExecutionTime = 21.23 s  ClockTime = 23 s

Time = 0.0928

smoothSolver:  Solving for Ux, Initial residual = 0.000119422, Final residual = 1.14304e-05, No Iterations 4
smoothSolver:  Solving for Uy, Initial residual = 0.00106302, Final residual = 7.98715e-05, No Iterations 5
GAMG:  Solving for p, Initial residual = 0.000227349, Final residual = 1.14231e-05, No Iterations 3
time step continuity errors : sum local = 3.12957e-08, global = -2.8487e-10, cumulative = -2.28475e-06
smoothSolver:  Solving for epsilon, Initial residual = 8.80972e-05, Final residual = 9.33007e-06, No Iterations 2
smoothSolver:  Solving for k, Initial residual = 0.000121665, Final residual = 6.47596e-06, No Iterations 3
ExecutionTime = 21.25 s  ClockTime = 23 s

Time = 0.0929

smoothSolver:  Solving for Ux, Initial residual = 0.000123766, Final residual = 1.20796e-05, No Iterations 4
smoothSolver:  Solving for Uy, Initial residual = 0.00111631, Final residual = 8.26487e-05, No Iterations 5
GAMG:  Solving for p, Initial residual = 0.000224698, Final residual = 1.89713e-05, No Iterations 2
time step continuity errors : sum local = 5.19725e-08, global = -7.46488e-11, cumulative = -2.28482e-06
smoothSolver:  Solving for epsilon, Initial residual = 0.000108532, Final residual = 9.68082e-06, No Iterations 2
smoothSolver:  Solving for k, Initial residual = 0.000125615, Final residual = 1.23071e-05, No Iterations 2
ExecutionTime = 21.27 s  ClockTime = 23 s

Time = 0.093

smoothSolver:  Solving for Ux, Initial residual = 0.000122034, Final residual = 8.42108e-06, No Iterations 5
smoothSolver:  Solving for Uy, Initial residual = 0.00105255, Final residual = 8.42536e-05, No Iterations 5
GAMG:  Solving for p, Initial residual = 0.000220563, Final residual = 2.13861e-05, No Iterations 2
time step continuity errors : sum local = 5.85859e-08, global = -7.27783e-11, cumulative = -2.28489e-06
smoothSolver:  Solving for epsilon, Initial residual = 8.75534e-05, Final residual = 9.17661e-06, No Iterations 2
smoothSolver:  Solving for k, Initial residual = 0.000118428, Final residual = 6.24939e-06, No Iterations 3
ExecutionTime = 21.3 s  ClockTime = 23 s

Time = 0.0931

smoothSolver:  Solving for Ux, Initial residual = 0.000124356, Final residual = 9.00566e-06, No Iterations 5
smoothSolver:  Solving for Uy, Initial residual = 0.00106743, Final residual = 8.67416e-05, No Iterations 5
GAMG:  Solving for p, Initial residual = 0.000217968, Final residual = 2.04691e-05, No Iterations 2
time step continuity errors : sum local = 5.60735e-08, global = -1.45678e-10, cumulative = -2.28504e-06
smoothSolver:  Solving for epsilon, Initial residual = 0.000108543, Final residual = 9.49994e-06, No Iterations 2
smoothSolver:  Solving for k, Initial residual = 0.000123855, Final residual = 1.21064e-05, No Iterations 2
ExecutionTime = 21.32 s  ClockTime = 23 s

Time = 0.0932

smoothSolver:  Solving for Ux, Initial residual = 0.000127497, Final residual = 9.60151e-06, No Iterations 5
smoothSolver:  Solving for Uy, Initial residual = 0.00106955, Final residual = 8.91919e-05, No Iterations 5
GAMG:  Solving for p, Initial residual = 0.000212355, Final residual = 1.91014e-05, No Iterations 2
time step continuity errors : sum local = 5.23237e-08, global = -1.14317e-10, cumulative = -2.28515e-06
smoothSolver:  Solving for epsilon, Initial residual = 8.75703e-05, Final residual = 9.06097e-06, No Iterations 2
smoothSolver:  Solving for k, Initial residual = 0.000117828, Final residual = 6.22969e-06, No Iterations 3
ExecutionTime = 21.34 s  ClockTime = 23 s

Time = 0.0933

smoothSolver:  Solving for Ux, Initial residual = 0.000129151, Final residual = 1.01718e-05, No Iterations 5
smoothSolver:  Solving for Uy, Initial residual = 0.00106421, Final residual = 9.12926e-05, No Iterations 5
GAMG:  Solving for p, Initial residual = 0.000207189, Final residual = 1.78376e-05, No Iterations 2
time step continuity errors : sum local = 4.88623e-08, global = -2.05888e-10, cumulative = -2.28536e-06
smoothSolver:  Solving for epsilon, Initial residual = 0.00010757, Final residual = 9.36035e-06, No Iterations 2
smoothSolver:  Solving for k, Initial residual = 0.000122794, Final residual = 1.22197e-05, No Iterations 2
ExecutionTime = 21.36 s  ClockTime = 23 s

Time = 0.0934

smoothSolver:  Solving for Ux, Initial residual = 0.000131081, Final residual = 1.06765e-05, No Iterations 5
smoothSolver:  Solving for Uy, Initial residual = 0.0010515, Final residual = 9.30715e-05, No Iterations 5
GAMG:  Solving for p, Initial residual = 0.000200613, Final residual = 1.68086e-05, No Iterations 2
time step continuity errors : sum local = 4.6042e-08, global = -1.79661e-10, cumulative = -2.28554e-06
smoothSolver:  Solving for epsilon, Initial residual = 8.59017e-05, Final residual = 8.86328e-06, No Iterations 2
smoothSolver:  Solving for k, Initial residual = 0.000117893, Final residual = 6.39412e-06, No Iterations 3
ExecutionTime = 21.38 s  ClockTime = 23 s

Time = 0.0935

smoothSolver:  Solving for Ux, Initial residual = 0.00013314, Final residual = 1.11034e-05, No Iterations 5
smoothSolver:  Solving for Uy, Initial residual = 0.00104658, Final residual = 9.47549e-05, No Iterations 5
GAMG:  Solving for p, Initial residual = 0.000194331, Final residual = 1.61527e-05, No Iterations 2
time step continuity errors : sum local = 4.42463e-08, global = -2.53319e-10, cumulative = -2.28579e-06
smoothSolver:  Solving for epsilon, Initial residual = 0.000106771, Final residual = 9.29645e-06, No Iterations 2
smoothSolver:  Solving for k, Initial residual = 0.000123024, Final residual = 6.47994e-06, No Iterations 3
ExecutionTime = 21.41 s  ClockTime = 23 s

Time = 0.0936

smoothSolver:  Solving for Ux, Initial residual = 0.00013409, Final residual = 1.14463e-05, No Iterations 5
smoothSolver:  Solving for Uy, Initial residual = 0.0010366, Final residual = 9.606e-05, No Iterations 5
GAMG:  Solving for p, Initial residual = 0.000189467, Final residual = 1.57202e-05, No Iterations 2
time step continuity errors : sum local = 4.30605e-08, global = -2.2089e-10, cumulative = -2.28601e-06
smoothSolver:  Solving for epsilon, Initial residual = 8.62896e-05, Final residual = 8.85178e-06, No Iterations 2
smoothSolver:  Solving for k, Initial residual = 0.000119027, Final residual = 6.68396e-06, No Iterations 3
ExecutionTime = 21.43 s  ClockTime = 23 s

Time = 0.0937

smoothSolver:  Solving for Ux, Initial residual = 0.000136409, Final residual = 1.17162e-05, No Iterations 5
smoothSolver:  Solving for Uy, Initial residual = 0.00103593, Final residual = 9.70412e-05, No Iterations 5
GAMG:  Solving for p, Initial residual = 0.000182437, Final residual = 1.57994e-05, No Iterations 2
time step continuity errors : sum local = 4.32795e-08, global = -2.92457e-10, cumulative = -2.28631e-06
smoothSolver:  Solving for epsilon, Initial residual = 0.000105694, Final residual = 9.28369e-06, No Iterations 2
smoothSolver:  Solving for k, Initial residual = 0.000121724, Final residual = 6.80029e-06, No Iterations 3
ExecutionTime = 21.44 s  ClockTime = 23 s

Time = 0.0938

smoothSolver:  Solving for Ux, Initial residual = 0.00013631, Final residual = 1.18988e-05, No Iterations 5
smoothSolver:  Solving for Uy, Initial residual = 0.00102884, Final residual = 9.74943e-05, No Iterations 5
GAMG:  Solving for p, Initial residual = 0.000178988, Final residual = 1.61116e-05, No Iterations 2
time step continuity errors : sum local = 4.41346e-08, global = -2.42474e-10, cumulative = -2.28655e-06
smoothSolver:  Solving for epsilon, Initial residual = 8.49848e-05, Final residual = 8.79706e-06, No Iterations 2
smoothSolver:  Solving for k, Initial residual = 0.000118354, Final residual = 7.04265e-06, No Iterations 3
ExecutionTime = 21.46 s  ClockTime = 23 s

Time = 0.0939

smoothSolver:  Solving for Ux, Initial residual = 0.000138502, Final residual = 1.19991e-05, No Iterations 5
smoothSolver:  Solving for Uy, Initial residual = 0.00102989, Final residual = 9.75429e-05, No Iterations 5
GAMG:  Solving for p, Initial residual = 0.000174028, Final residual = 1.69743e-05, No Iterations 2
time step continuity errors : sum local = 4.65007e-08, global = -2.81439e-10, cumulative = -2.28683e-06
smoothSolver:  Solving for epsilon, Initial residual = 0.000105311, Final residual = 9.31634e-06, No Iterations 2
smoothSolver:  Solving for k, Initial residual = 0.000122663, Final residual = 7.10337e-06, No Iterations 3
ExecutionTime = 21.48 s  ClockTime = 23 s

Time = 0.094

smoothSolver:  Solving for Ux, Initial residual = 0.000137768, Final residual = 1.20102e-05, No Iterations 5
smoothSolver:  Solving for Uy, Initial residual = 0.0010249, Final residual = 9.7062e-05, No Iterations 5
GAMG:  Solving for p, Initial residual = 0.000172887, Final residual = 1.00861e-05, No Iterations 3
time step continuity errors : sum local = 2.76309e-08, global = -2.67464e-10, cumulative = -2.2871e-06
smoothSolver:  Solving for epsilon, Initial residual = 8.54939e-05, Final residual = 8.94471e-06, No Iterations 2
smoothSolver:  Solving for k, Initial residual = 0.00011707, Final residual = 7.2598e-06, No Iterations 3
ExecutionTime = 21.51 s  ClockTime = 23 s

Time = 0.0941

smoothSolver:  Solving for Ux, Initial residual = 0.000143203, Final residual = 1.19512e-05, No Iterations 5
smoothSolver:  Solving for Uy, Initial residual = 0.00106745, Final residual = 9.66099e-05, No Iterations 5
GAMG:  Solving for p, Initial residual = 0.000170318, Final residual = 1.53507e-05, No Iterations 2
time step continuity errors : sum local = 4.20586e-08, global = -1.71697e-10, cumulative = -2.28727e-06
smoothSolver:  Solving for epsilon, Initial residual = 0.000104719, Final residual = 9.3056e-06, No Iterations 2
smoothSolver:  Solving for k, Initial residual = 0.000120149, Final residual = 7.32784e-06, No Iterations 3
ExecutionTime = 21.53 s  ClockTime = 23 s

Time = 0.0942

smoothSolver:  Solving for Ux, Initial residual = 0.000136496, Final residual = 1.17795e-05, No Iterations 5
smoothSolver:  Solving for Uy, Initial residual = 0.00101364, Final residual = 9.51432e-05, No Iterations 5
GAMG:  Solving for p, Initial residual = 0.000170529, Final residual = 1.04454e-05, No Iterations 3
time step continuity errors : sum local = 2.86185e-08, global = -2.40881e-10, cumulative = -2.28751e-06
smoothSolver:  Solving for epsilon, Initial residual = 8.43315e-05, Final residual = 8.93758e-06, No Iterations 2
smoothSolver:  Solving for k, Initial residual = 0.000117209, Final residual = 7.51106e-06, No Iterations 3
ExecutionTime = 21.55 s  ClockTime = 23 s

Time = 0.0943

smoothSolver:  Solving for Ux, Initial residual = 0.0001424, Final residual = 1.16104e-05, No Iterations 5
smoothSolver:  Solving for Uy, Initial residual = 0.00106527, Final residual = 9.35177e-05, No Iterations 5
GAMG:  Solving for p, Initial residual = 0.000171757, Final residual = 1.71225e-05, No Iterations 2
time step continuity errors : sum local = 4.69174e-08, global = -1.72967e-10, cumulative = -2.28768e-06
smoothSolver:  Solving for epsilon, Initial residual = 0.00010433, Final residual = 9.40747e-06, No Iterations 2
smoothSolver:  Solving for k, Initial residual = 0.000120642, Final residual = 7.49339e-06, No Iterations 3
ExecutionTime = 21.58 s  ClockTime = 23 s

Time = 0.0944

smoothSolver:  Solving for Ux, Initial residual = 0.000135513, Final residual = 1.13424e-05, No Iterations 5
smoothSolver:  Solving for Uy, Initial residual = 0.0010166, Final residual = 9.13789e-05, No Iterations 5
GAMG:  Solving for p, Initial residual = 0.000172443, Final residual = 1.10475e-05, No Iterations 3
time step continuity errors : sum local = 3.02708e-08, global = -1.90178e-10, cumulative = -2.28787e-06
smoothSolver:  Solving for epsilon, Initial residual = 8.47822e-05, Final residual = 9.0561e-06, No Iterations 2
smoothSolver:  Solving for k, Initial residual = 0.000115846, Final residual = 7.56951e-06, No Iterations 3
ExecutionTime = 21.61 s  ClockTime = 23 s

Time = 0.0945

smoothSolver:  Solving for Ux, Initial residual = 0.000140878, Final residual = 1.10502e-05, No Iterations 5
smoothSolver:  Solving for Uy, Initial residual = 0.00107419, Final residual = 8.91146e-05, No Iterations 5
GAMG:  Solving for p, Initial residual = 0.000175426, Final residual = 9.97859e-06, No Iterations 3
time step continuity errors : sum local = 2.73451e-08, global = -1.85938e-10, cumulative = -2.28806e-06
smoothSolver:  Solving for epsilon, Initial residual = 0.000104311, Final residual = 9.41974e-06, No Iterations 2
smoothSolver:  Solving for k, Initial residual = 0.000118402, Final residual = 7.54625e-06, No Iterations 3
ExecutionTime = 21.63 s  ClockTime = 23 s

Time = 0.0946

smoothSolver:  Solving for Ux, Initial residual = 0.000136783, Final residual = 1.06846e-05, No Iterations 5
smoothSolver:  Solving for Uy, Initial residual = 0.00105246, Final residual = 8.69862e-05, No Iterations 5
GAMG:  Solving for p, Initial residual = 0.000176173, Final residual = 1.00093e-05, No Iterations 3
time step continuity errors : sum local = 2.74304e-08, global = -1.43375e-10, cumulative = -2.2882e-06
smoothSolver:  Solving for epsilon, Initial residual = 8.41001e-05, Final residual = 9.03629e-06, No Iterations 2
smoothSolver:  Solving for k, Initial residual = 0.000116705, Final residual = 7.6167e-06, No Iterations 3
ExecutionTime = 21.65 s  ClockTime = 23 s

Time = 0.0947

smoothSolver:  Solving for Ux, Initial residual = 0.000136235, Final residual = 1.0306e-05, No Iterations 5
smoothSolver:  Solving for Uy, Initial residual = 0.00105132, Final residual = 8.43426e-05, No Iterations 5
GAMG:  Solving for p, Initial residual = 0.000179886, Final residual = 1.03584e-05, No Iterations 3
time step continuity errors : sum local = 2.83895e-08, global = -1.69902e-10, cumulative = -2.28837e-06
smoothSolver:  Solving for epsilon, Initial residual = 0.000104156, Final residual = 9.46083e-06, No Iterations 2
smoothSolver:  Solving for k, Initial residual = 0.000119722, Final residual = 7.53966e-06, No Iterations 3
ExecutionTime = 21.68 s  ClockTime = 23 s

Time = 0.0948

smoothSolver:  Solving for Ux, Initial residual = 0.000132986, Final residual = 9.92513e-06, No Iterations 5
smoothSolver:  Solving for Uy, Initial residual = 0.00104448, Final residual = 8.15143e-05, No Iterations 5
GAMG:  Solving for p, Initial residual = 0.000181599, Final residual = 1.04262e-05, No Iterations 3
time step continuity errors : sum local = 2.85763e-08, global = -1.11523e-10, cumulative = -2.28848e-06
smoothSolver:  Solving for epsilon, Initial residual = 8.46807e-05, Final residual = 9.11936e-06, No Iterations 2
smoothSolver:  Solving for k, Initial residual = 0.000115642, Final residual = 7.54481e-06, No Iterations 3
ExecutionTime = 21.7 s  ClockTime = 23 s

Time = 0.0949

smoothSolver:  Solving for Ux, Initial residual = 0.000132428, Final residual = 9.49229e-06, No Iterations 5
smoothSolver:  Solving for Uy, Initial residual = 0.00104614, Final residual = 7.87672e-05, No Iterations 5
GAMG:  Solving for p, Initial residual = 0.000185404, Final residual = 1.06945e-05, No Iterations 3
time step continuity errors : sum local = 2.93142e-08, global = -1.20546e-10, cumulative = -2.2886e-06
smoothSolver:  Solving for epsilon, Initial residual = 0.000104495, Final residual = 9.45932e-06, No Iterations 2
smoothSolver:  Solving for k, Initial residual = 0.00011751, Final residual = 7.42623e-06, No Iterations 3
ExecutionTime = 21.72 s  ClockTime = 23 s

Time = 0.095

smoothSolver:  Solving for Ux, Initial residual = 0.000128748, Final residual = 9.0478e-06, No Iterations 5
smoothSolver:  Solving for Uy, Initial residual = 0.00103695, Final residual = 7.61374e-05, No Iterations 5
GAMG:  Solving for p, Initial residual = 0.000187909, Final residual = 1.06742e-05, No Iterations 3
time step continuity errors : sum local = 2.926e-08, global = -5.74384e-11, cumulative = -2.28866e-06
smoothSolver:  Solving for epsilon, Initial residual = 8.4479e-05, Final residual = 9.11267e-06, No Iterations 2
smoothSolver:  Solving for k, Initial residual = 0.00011582, Final residual = 7.41462e-06, No Iterations 3
ExecutionTime = 21.75 s  ClockTime = 23 s

Time = 0.0951

smoothSolver:  Solving for Ux, Initial residual = 0.000127352, Final residual = 8.55506e-06, No Iterations 5
smoothSolver:  Solving for Uy, Initial residual = 0.00103748, Final residual = 7.37283e-05, No Iterations 5
GAMG:  Solving for p, Initial residual = 0.00019221, Final residual = 1.08431e-05, No Iterations 3
time step continuity errors : sum local = 2.97259e-08, global = -6.39229e-11, cumulative = -2.28873e-06
smoothSolver:  Solving for epsilon, Initial residual = 0.00010467, Final residual = 9.48551e-06, No Iterations 2
smoothSolver:  Solving for k, Initial residual = 0.00011899, Final residual = 7.25238e-06, No Iterations 3
ExecutionTime = 21.78 s  ClockTime = 23 s

Time = 0.0952

smoothSolver:  Solving for Ux, Initial residual = 0.000123225, Final residual = 8.07512e-06, No Iterations 5
smoothSolver:  Solving for Uy, Initial residual = 0.0010273, Final residual = 7.16528e-05, No Iterations 5
GAMG:  Solving for p, Initial residual = 0.000194611, Final residual = 1.07618e-05, No Iterations 3
time step continuity errors : sum local = 2.95044e-08, global = -7.04903e-12, cumulative = -2.28873e-06
smoothSolver:  Solving for epsilon, Initial residual = 8.51597e-05, Final residual = 9.14603e-06, No Iterations 2
smoothSolver:  Solving for k, Initial residual = 0.000115178, Final residual = 7.22772e-06, No Iterations 3
ExecutionTime = 21.81 s  ClockTime = 23 s

Time = 0.0953

smoothSolver:  Solving for Ux, Initial residual = 0.000120953, Final residual = 1.16707e-05, No Iterations 4
smoothSolver:  Solving for Uy, Initial residual = 0.00102478, Final residual = 7.00734e-05, No Iterations 5
GAMG:  Solving for p, Initial residual = 0.000197502, Final residual = 1.06143e-05, No Iterations 3
time step continuity errors : sum local = 2.91028e-08, global = -3.39277e-11, cumulative = -2.28877e-06
smoothSolver:  Solving for epsilon, Initial residual = 0.000105276, Final residual = 9.47376e-06, No Iterations 2
smoothSolver:  Solving for k, Initial residual = 0.000117505, Final residual = 6.95764e-06, No Iterations 3
ExecutionTime = 21.83 s  ClockTime = 23 s

Time = 0.0954

smoothSolver:  Solving for Ux, Initial residual = 0.000116754, Final residual = 1.10978e-05, No Iterations 4
smoothSolver:  Solving for Uy, Initial residual = 0.00100223, Final residual = 6.87227e-05, No Iterations 5
GAMG:  Solving for p, Initial residual = 0.000198725, Final residual = 1.04798e-05, No Iterations 3
time step continuity errors : sum local = 2.87348e-08, global = 2.38261e-11, cumulative = -2.28874e-06
smoothSolver:  Solving for epsilon, Initial residual = 8.53489e-05, Final residual = 9.10996e-06, No Iterations 2
smoothSolver:  Solving for k, Initial residual = 0.000115549, Final residual = 6.90578e-06, No Iterations 3
ExecutionTime = 21.85 s  ClockTime = 23 s

Time = 0.0955

smoothSolver:  Solving for Ux, Initial residual = 0.000114385, Final residual = 1.05161e-05, No Iterations 4
smoothSolver:  Solving for Uy, Initial residual = 0.000999277, Final residual = 6.83833e-05, No Iterations 5
GAMG:  Solving for p, Initial residual = 0.000200917, Final residual = 1.04608e-05, No Iterations 3
time step continuity errors : sum local = 2.86848e-08, global = 1.33541e-11, cumulative = -2.28873e-06
smoothSolver:  Solving for epsilon, Initial residual = 0.000105529, Final residual = 9.47671e-06, No Iterations 2
smoothSolver:  Solving for k, Initial residual = 0.000118603, Final residual = 6.64131e-06, No Iterations 3
ExecutionTime = 21.87 s  ClockTime = 23 s


SIMPLE solution converged in 0.0955 iterations

End

