/*---------------------------------------------------------------------------*\
  =========                 |
  \\      /  F ield         | OpenFOAM: The Open Source CFD Toolbox
   \\    /   O peration     | Website:  https://openfoam.org
    \\  /    A nd           | Version:  8
     \\/     M anipulation  |
\*---------------------------------------------------------------------------*/
Build  : 8-9b73cf21a682
Exec   : simpleFoam
Date   : Oct 04 2020
Time   : 08:44:39
Host   : "bnes"
PID    : 6276
I/O    : uncollated
Case   : /media/sbkim/2266B8F966B8CEB3/git/openfoam_seo/of/org/yjn2_deck_p25
nProcs : 1
sigFpe : Enabling floating point exception trapping (FOAM_SIGFPE).
fileModificationChecking : Monitoring run-time modified files using timeStampMaster (fileModificationSkew 10)
allowSystemOperations : Allowing user-supplied system call operations

// * * * * * * * * * * * * * * * * * * * * * * * * * * * * * * * * * * * * * //
Create time

Create mesh for time = 0


SIMPLE: Convergence criteria found
        p: tolerance 0.01
        U: tolerance 0.001
        "(k|epsilon|omega|f|v2)": tolerance 0.001

Reading field p

Reading field U

Reading/calculating face flux field phi

Selecting incompressible transport model Newtonian
Selecting turbulence model type RAS
Selecting RAS turbulence model kEpsilon
RAS
{
    RASModel        kEpsilon;
    turbulence      on;
    printCoeffs     on;
    Cmu             0.09;
    C1              1.44;
    C2              1.92;
    C3              0;
    sigmak          1;
    sigmaEps        1.3;
}

No MRF models present

No finite volume options present

Starting time loop

Time = 0.0001

smoothSolver:  Solving for Ux, Initial residual = 1, Final residual = 0.000508225, No Iterations 1
smoothSolver:  Solving for Uy, Initial residual = 1, Final residual = 0.0768911, No Iterations 1
GAMG:  Solving for p, Initial residual = 1, Final residual = 0.0640178, No Iterations 6
time step continuity errors : sum local = 2.56095e-05, global = -3.48481e-06, cumulative = -3.48481e-06
smoothSolver:  Solving for epsilon, Initial residual = 0.171566, Final residual = 0.0155537, No Iterations 2
smoothSolver:  Solving for k, Initial residual = 1, Final residual = 0.0864239, No Iterations 2
ExecutionTime = 0.16 s  ClockTime = 0 s

Time = 0.0002

smoothSolver:  Solving for Ux, Initial residual = 0.357452, Final residual = 0.0125752, No Iterations 2
smoothSolver:  Solving for Uy, Initial residual = 0.645158, Final residual = 0.0194402, No Iterations 2
GAMG:  Solving for p, Initial residual = 0.682394, Final residual = 0.0544642, No Iterations 3
time step continuity errors : sum local = 0.000104338, global = 1.00695e-05, cumulative = 6.58471e-06
smoothSolver:  Solving for epsilon, Initial residual = 0.0581273, Final residual = 0.000145172, No Iterations 1
smoothSolver:  Solving for k, Initial residual = 0.49027, Final residual = 0.0235263, No Iterations 2
ExecutionTime = 0.24 s  ClockTime = 0 s

Time = 0.0003

smoothSolver:  Solving for Ux, Initial residual = 0.183763, Final residual = 0.0107218, No Iterations 2
smoothSolver:  Solving for Uy, Initial residual = 0.587777, Final residual = 0.0310396, No Iterations 2
GAMG:  Solving for p, Initial residual = 0.169693, Final residual = 0.0144318, No Iterations 3
time step continuity errors : sum local = 4.9783e-05, global = 3.51804e-06, cumulative = 1.01028e-05
smoothSolver:  Solving for epsilon, Initial residual = 0.0421168, Final residual = 0.000332101, No Iterations 1
bounding epsilon, min: -183.24 max: 133651 average: 401.223
smoothSolver:  Solving for k, Initial residual = 0.318283, Final residual = 0.0191602, No Iterations 2
ExecutionTime = 0.32 s  ClockTime = 0 s

Time = 0.0004

smoothSolver:  Solving for Ux, Initial residual = 0.108805, Final residual = 0.00995451, No Iterations 2
smoothSolver:  Solving for Uy, Initial residual = 0.442257, Final residual = 0.0333627, No Iterations 2
GAMG:  Solving for p, Initial residual = 0.0996997, Final residual = 0.00684359, No Iterations 3
time step continuity errors : sum local = 3.17059e-05, global = 2.14037e-07, cumulative = 1.03168e-05
smoothSolver:  Solving for epsilon, Initial residual = 0.0222201, Final residual = 0.000832321, No Iterations 1
smoothSolver:  Solving for k, Initial residual = 0.235866, Final residual = 0.0163351, No Iterations 2
ExecutionTime = 0.41 s  ClockTime = 1 s

Time = 0.0005

smoothSolver:  Solving for Ux, Initial residual = 0.0762172, Final residual = 0.00442688, No Iterations 3
smoothSolver:  Solving for Uy, Initial residual = 0.337474, Final residual = 0.028343, No Iterations 2
GAMG:  Solving for p, Initial residual = 0.0864516, Final residual = 0.00853425, No Iterations 2
time step continuity errors : sum local = 4.09579e-05, global = -3.88131e-06, cumulative = 6.43548e-06
smoothSolver:  Solving for epsilon, Initial residual = 0.0094395, Final residual = 0.000420386, No Iterations 2
smoothSolver:  Solving for k, Initial residual = 0.177483, Final residual = 0.0127571, No Iterations 2
ExecutionTime = 0.49 s  ClockTime = 1 s

Time = 0.0006

smoothSolver:  Solving for Ux, Initial residual = 0.0588518, Final residual = 0.00397447, No Iterations 3
smoothSolver:  Solving for Uy, Initial residual = 0.278557, Final residual = 0.0268409, No Iterations 2
GAMG:  Solving for p, Initial residual = 0.0866952, Final residual = 0.00588032, No Iterations 3
time step continuity errors : sum local = 2.72373e-05, global = -1.08122e-06, cumulative = 5.35426e-06
smoothSolver:  Solving for epsilon, Initial residual = 0.00720323, Final residual = 0.000534154, No Iterations 2
smoothSolver:  Solving for k, Initial residual = 0.13608, Final residual = 0.00982322, No Iterations 2
ExecutionTime = 0.57 s  ClockTime = 1 s

Time = 0.0007

smoothSolver:  Solving for Ux, Initial residual = 0.0464084, Final residual = 0.00323567, No Iterations 3
smoothSolver:  Solving for Uy, Initial residual = 0.240571, Final residual = 0.0130012, No Iterations 3
GAMG:  Solving for p, Initial residual = 0.108182, Final residual = 0.0100517, No Iterations 2
time step continuity errors : sum local = 3.20231e-05, global = -5.09659e-06, cumulative = 2.57666e-07
smoothSolver:  Solving for epsilon, Initial residual = 0.00645069, Final residual = 0.000533574, No Iterations 2
smoothSolver:  Solving for k, Initial residual = 0.112815, Final residual = 0.00838186, No Iterations 2
ExecutionTime = 0.66 s  ClockTime = 1 s

Time = 0.0008

smoothSolver:  Solving for Ux, Initial residual = 0.0379402, Final residual = 0.00290083, No Iterations 3
smoothSolver:  Solving for Uy, Initial residual = 0.192498, Final residual = 0.0118513, No Iterations 3
GAMG:  Solving for p, Initial residual = 0.0878542, Final residual = 0.00668222, No Iterations 3
time step continuity errors : sum local = 2.24141e-05, global = -1.66959e-06, cumulative = -1.41193e-06
smoothSolver:  Solving for epsilon, Initial residual = 0.00549461, Final residual = 0.000499269, No Iterations 2
smoothSolver:  Solving for k, Initial residual = 0.0910397, Final residual = 0.00687011, No Iterations 2
ExecutionTime = 0.76 s  ClockTime = 1 s

Time = 0.0009

smoothSolver:  Solving for Ux, Initial residual = 0.0335714, Final residual = 0.00244483, No Iterations 3
smoothSolver:  Solving for Uy, Initial residual = 0.172018, Final residual = 0.0108228, No Iterations 3
GAMG:  Solving for p, Initial residual = 0.06421, Final residual = 0.00407501, No Iterations 3
time step continuity errors : sum local = 1.6583e-05, global = -1.13188e-06, cumulative = -2.54381e-06
smoothSolver:  Solving for epsilon, Initial residual = 0.00459027, Final residual = 0.000449866, No Iterations 2
smoothSolver:  Solving for k, Initial residual = 0.0820322, Final residual = 0.00611434, No Iterations 2
ExecutionTime = 0.85 s  ClockTime = 1 s

Time = 0.001

smoothSolver:  Solving for Ux, Initial residual = 0.0285559, Final residual = 0.00220693, No Iterations 3
smoothSolver:  Solving for Uy, Initial residual = 0.157591, Final residual = 0.00985984, No Iterations 3
GAMG:  Solving for p, Initial residual = 0.0624464, Final residual = 0.006132, No Iterations 2
time step continuity errors : sum local = 2.5063e-05, global = -4.13016e-06, cumulative = -6.67397e-06
smoothSolver:  Solving for epsilon, Initial residual = 0.00395867, Final residual = 0.000201968, No Iterations 3
smoothSolver:  Solving for k, Initial residual = 0.0718399, Final residual = 0.00592591, No Iterations 2
ExecutionTime = 0.93 s  ClockTime = 1 s

Time = 0.0011

smoothSolver:  Solving for Ux, Initial residual = 0.0254313, Final residual = 0.00202543, No Iterations 3
smoothSolver:  Solving for Uy, Initial residual = 0.152647, Final residual = 0.00910841, No Iterations 3
GAMG:  Solving for p, Initial residual = 0.0535208, Final residual = 0.00280543, No Iterations 3
time step continuity errors : sum local = 1.06776e-05, global = -1.11934e-06, cumulative = -7.79331e-06
smoothSolver:  Solving for epsilon, Initial residual = 0.00343077, Final residual = 0.000188897, No Iterations 3
smoothSolver:  Solving for k, Initial residual = 0.0642756, Final residual = 0.00513069, No Iterations 2
ExecutionTime = 1.01 s  ClockTime = 1 s

Time = 0.0012

smoothSolver:  Solving for Ux, Initial residual = 0.0244136, Final residual = 0.00183546, No Iterations 3
smoothSolver:  Solving for Uy, Initial residual = 0.151067, Final residual = 0.00874162, No Iterations 3
GAMG:  Solving for p, Initial residual = 0.0421453, Final residual = 0.00328412, No Iterations 2
time step continuity errors : sum local = 1.28552e-05, global = -8.7417e-07, cumulative = -8.66748e-06
smoothSolver:  Solving for epsilon, Initial residual = 0.00305192, Final residual = 0.000180508, No Iterations 3
smoothSolver:  Solving for k, Initial residual = 0.0557708, Final residual = 0.00473173, No Iterations 2
ExecutionTime = 1.09 s  ClockTime = 1 s

Time = 0.0013

smoothSolver:  Solving for Ux, Initial residual = 0.0218901, Final residual = 0.00165323, No Iterations 3
smoothSolver:  Solving for Uy, Initial residual = 0.131564, Final residual = 0.00812067, No Iterations 3
GAMG:  Solving for p, Initial residual = 0.0382512, Final residual = 0.00325557, No Iterations 2
time step continuity errors : sum local = 1.25604e-05, global = 1.60727e-06, cumulative = -7.06021e-06
smoothSolver:  Solving for epsilon, Initial residual = 0.00281004, Final residual = 0.000174129, No Iterations 3
smoothSolver:  Solving for k, Initial residual = 0.0494652, Final residual = 0.00437704, No Iterations 2
ExecutionTime = 1.16 s  ClockTime = 1 s

Time = 0.0014

smoothSolver:  Solving for Ux, Initial residual = 0.0201342, Final residual = 0.00147521, No Iterations 3
smoothSolver:  Solving for Uy, Initial residual = 0.113652, Final residual = 0.00748334, No Iterations 3
GAMG:  Solving for p, Initial residual = 0.0331339, Final residual = 0.00210786, No Iterations 3
time step continuity errors : sum local = 8.30716e-06, global = 5.33787e-07, cumulative = -6.52642e-06
smoothSolver:  Solving for epsilon, Initial residual = 0.00278585, Final residual = 0.000182805, No Iterations 3
smoothSolver:  Solving for k, Initial residual = 0.043647, Final residual = 0.00431019, No Iterations 2
ExecutionTime = 1.23 s  ClockTime = 1 s

Time = 0.0015

smoothSolver:  Solving for Ux, Initial residual = 0.0193239, Final residual = 0.00135327, No Iterations 3
smoothSolver:  Solving for Uy, Initial residual = 0.111325, Final residual = 0.00735828, No Iterations 3
GAMG:  Solving for p, Initial residual = 0.0509029, Final residual = 0.00337392, No Iterations 2
time step continuity errors : sum local = 8.06312e-06, global = 1.24356e-06, cumulative = -5.28286e-06
smoothSolver:  Solving for epsilon, Initial residual = 0.00271168, Final residual = 0.000185581, No Iterations 3
smoothSolver:  Solving for k, Initial residual = 0.0399262, Final residual = 0.0018204, No Iterations 3
ExecutionTime = 1.31 s  ClockTime = 1 s

Time = 0.0016

smoothSolver:  Solving for Ux, Initial residual = 0.0169462, Final residual = 0.00122605, No Iterations 3
smoothSolver:  Solving for Uy, Initial residual = 0.0951462, Final residual = 0.00680265, No Iterations 3
GAMG:  Solving for p, Initial residual = 0.050272, Final residual = 0.00443412, No Iterations 2
time step continuity errors : sum local = 9.70088e-06, global = 1.00047e-06, cumulative = -4.28239e-06
smoothSolver:  Solving for epsilon, Initial residual = 0.00286513, Final residual = 0.000214429, No Iterations 3
smoothSolver:  Solving for k, Initial residual = 0.0352522, Final residual = 0.0016562, No Iterations 3
ExecutionTime = 1.38 s  ClockTime = 2 s

Time = 0.0017

smoothSolver:  Solving for Ux, Initial residual = 0.0152023, Final residual = 0.00111378, No Iterations 3
smoothSolver:  Solving for Uy, Initial residual = 0.086505, Final residual = 0.0062848, No Iterations 3
GAMG:  Solving for p, Initial residual = 0.0548708, Final residual = 0.00497042, No Iterations 2
time step continuity errors : sum local = 9.26975e-06, global = 8.00311e-07, cumulative = -3.48208e-06
smoothSolver:  Solving for epsilon, Initial residual = 0.00283021, Final residual = 0.000227443, No Iterations 3
smoothSolver:  Solving for k, Initial residual = 0.0327139, Final residual = 0.00164547, No Iterations 3
ExecutionTime = 1.46 s  ClockTime = 2 s

Time = 0.0018

smoothSolver:  Solving for Ux, Initial residual = 0.0135814, Final residual = 0.00102275, No Iterations 3
smoothSolver:  Solving for Uy, Initial residual = 0.080456, Final residual = 0.00586421, No Iterations 3
GAMG:  Solving for p, Initial residual = 0.0521697, Final residual = 0.00448933, No Iterations 2
time step continuity errors : sum local = 8.37705e-06, global = 7.42564e-07, cumulative = -2.73951e-06
smoothSolver:  Solving for epsilon, Initial residual = 0.00291409, Final residual = 0.000239205, No Iterations 3
smoothSolver:  Solving for k, Initial residual = 0.0300747, Final residual = 0.00154987, No Iterations 3
ExecutionTime = 1.52 s  ClockTime = 2 s

Time = 0.0019

smoothSolver:  Solving for Ux, Initial residual = 0.0121012, Final residual = 0.000941733, No Iterations 3
smoothSolver:  Solving for Uy, Initial residual = 0.0737249, Final residual = 0.00544094, No Iterations 3
GAMG:  Solving for p, Initial residual = 0.0446486, Final residual = 0.00343513, No Iterations 2
time step continuity errors : sum local = 7.14215e-06, global = 8.54932e-07, cumulative = -1.88458e-06
smoothSolver:  Solving for epsilon, Initial residual = 0.00283445, Final residual = 0.000242959, No Iterations 3
smoothSolver:  Solving for k, Initial residual = 0.0272431, Final residual = 0.00150945, No Iterations 3
ExecutionTime = 1.61 s  ClockTime = 2 s

Time = 0.002

smoothSolver:  Solving for Ux, Initial residual = 0.0109256, Final residual = 0.000867727, No Iterations 3
smoothSolver:  Solving for Uy, Initial residual = 0.0675442, Final residual = 0.00505886, No Iterations 3
GAMG:  Solving for p, Initial residual = 0.0396412, Final residual = 0.00271287, No Iterations 2
time step continuity errors : sum local = 6.03568e-06, global = 8.82327e-07, cumulative = -1.00225e-06
smoothSolver:  Solving for epsilon, Initial residual = 0.00272734, Final residual = 0.000242867, No Iterations 3
smoothSolver:  Solving for k, Initial residual = 0.0245544, Final residual = 0.00142187, No Iterations 3
ExecutionTime = 1.7 s  ClockTime = 2 s

Time = 0.0021

smoothSolver:  Solving for Ux, Initial residual = 0.00997355, Final residual = 0.000803368, No Iterations 3
smoothSolver:  Solving for Uy, Initial residual = 0.062945, Final residual = 0.00467926, No Iterations 3
GAMG:  Solving for p, Initial residual = 0.0361388, Final residual = 0.00241396, No Iterations 2
time step continuity errors : sum local = 5.58541e-06, global = 7.96935e-07, cumulative = -2.0532e-07
smoothSolver:  Solving for epsilon, Initial residual = 0.00258938, Final residual = 0.00023722, No Iterations 3
smoothSolver:  Solving for k, Initial residual = 0.022225, Final residual = 0.00136518, No Iterations 3
ExecutionTime = 1.77 s  ClockTime = 2 s

Time = 0.0022

smoothSolver:  Solving for Ux, Initial residual = 0.00916856, Final residual = 0.000747498, No Iterations 3
smoothSolver:  Solving for Uy, Initial residual = 0.0591458, Final residual = 0.00431752, No Iterations 3
GAMG:  Solving for p, Initial residual = 0.0330698, Final residual = 0.00215987, No Iterations 2
time step continuity errors : sum local = 5.164e-06, global = 6.91122e-07, cumulative = 4.85802e-07
smoothSolver:  Solving for epsilon, Initial residual = 0.00247599, Final residual = 0.000227361, No Iterations 3
smoothSolver:  Solving for k, Initial residual = 0.0201161, Final residual = 0.00126316, No Iterations 3
ExecutionTime = 1.85 s  ClockTime = 2 s

Time = 0.0023

smoothSolver:  Solving for Ux, Initial residual = 0.00847367, Final residual = 0.000699568, No Iterations 3
smoothSolver:  Solving for Uy, Initial residual = 0.0556097, Final residual = 0.00398019, No Iterations 3
GAMG:  Solving for p, Initial residual = 0.0302684, Final residual = 0.0019139, No Iterations 2
time step continuity errors : sum local = 4.71595e-06, global = 5.80089e-07, cumulative = 1.06589e-06
smoothSolver:  Solving for epsilon, Initial residual = 0.00235348, Final residual = 0.000216926, No Iterations 3
smoothSolver:  Solving for k, Initial residual = 0.0183204, Final residual = 0.00121754, No Iterations 3
ExecutionTime = 1.92 s  ClockTime = 2 s

Time = 0.0024

smoothSolver:  Solving for Ux, Initial residual = 0.00785462, Final residual = 0.000658068, No Iterations 3
smoothSolver:  Solving for Uy, Initial residual = 0.0522183, Final residual = 0.00367779, No Iterations 3
GAMG:  Solving for p, Initial residual = 0.0277659, Final residual = 0.00168234, No Iterations 2
time step continuity errors : sum local = 4.2617e-06, global = 4.64923e-07, cumulative = 1.53081e-06
smoothSolver:  Solving for epsilon, Initial residual = 0.00216634, Final residual = 0.000201012, No Iterations 3
smoothSolver:  Solving for k, Initial residual = 0.0163297, Final residual = 0.00111409, No Iterations 3
ExecutionTime = 2 s  ClockTime = 2 s

Time = 0.0025

smoothSolver:  Solving for Ux, Initial residual = 0.00729139, Final residual = 0.000623603, No Iterations 3
smoothSolver:  Solving for Uy, Initial residual = 0.0490509, Final residual = 0.00342328, No Iterations 3
GAMG:  Solving for p, Initial residual = 0.025583, Final residual = 0.00147955, No Iterations 2
time step continuity errors : sum local = 3.84587e-06, global = 3.61884e-07, cumulative = 1.8927e-06
smoothSolver:  Solving for epsilon, Initial residual = 0.00205473, Final residual = 0.00019097, No Iterations 3
smoothSolver:  Solving for k, Initial residual = 0.0151794, Final residual = 0.00109078, No Iterations 3
ExecutionTime = 2.11 s  ClockTime = 2 s

Time = 0.0026

smoothSolver:  Solving for Ux, Initial residual = 0.00678107, Final residual = 0.000594726, No Iterations 3
smoothSolver:  Solving for Uy, Initial residual = 0.0460982, Final residual = 0.00320101, No Iterations 3
GAMG:  Solving for p, Initial residual = 0.0236983, Final residual = 0.00131709, No Iterations 2
time step continuity errors : sum local = 3.50361e-06, global = 2.70294e-07, cumulative = 2.16299e-06
smoothSolver:  Solving for epsilon, Initial residual = 0.00189181, Final residual = 0.000174335, No Iterations 3
smoothSolver:  Solving for k, Initial residual = 0.0139932, Final residual = 0.00101019, No Iterations 3
ExecutionTime = 2.19 s  ClockTime = 2 s

Time = 0.0027

smoothSolver:  Solving for Ux, Initial residual = 0.006342, Final residual = 0.000569724, No Iterations 3
smoothSolver:  Solving for Uy, Initial residual = 0.0434174, Final residual = 0.00301956, No Iterations 3
GAMG:  Solving for p, Initial residual = 0.0221053, Final residual = 0.00119761, No Iterations 2
time step continuity errors : sum local = 3.24611e-06, global = 1.91461e-07, cumulative = 2.35445e-06
smoothSolver:  Solving for epsilon, Initial residual = 0.00178855, Final residual = 0.000163326, No Iterations 3
smoothSolver:  Solving for k, Initial residual = 0.0129481, Final residual = 0.000962354, No Iterations 3
ExecutionTime = 2.29 s  ClockTime = 2 s

Time = 0.0028

smoothSolver:  Solving for Ux, Initial residual = 0.00593357, Final residual = 0.000549481, No Iterations 3
smoothSolver:  Solving for Uy, Initial residual = 0.0411074, Final residual = 0.00286148, No Iterations 3
GAMG:  Solving for p, Initial residual = 0.0207207, Final residual = 0.00114101, No Iterations 2
time step continuity errors : sum local = 3.14377e-06, global = 1.2393e-07, cumulative = 2.47838e-06
smoothSolver:  Solving for epsilon, Initial residual = 0.00164729, Final residual = 0.000150742, No Iterations 3
smoothSolver:  Solving for k, Initial residual = 0.0120366, Final residual = 0.000909652, No Iterations 3
ExecutionTime = 2.36 s  ClockTime = 3 s

Time = 0.0029

smoothSolver:  Solving for Ux, Initial residual = 0.00555661, Final residual = 0.000532392, No Iterations 3
smoothSolver:  Solving for Uy, Initial residual = 0.0388965, Final residual = 0.00272597, No Iterations 3
GAMG:  Solving for p, Initial residual = 0.0195008, Final residual = 0.00111945, No Iterations 2
time step continuity errors : sum local = 3.12594e-06, global = 7.18285e-08, cumulative = 2.55021e-06
smoothSolver:  Solving for epsilon, Initial residual = 0.00152882, Final residual = 0.000140738, No Iterations 3
smoothSolver:  Solving for k, Initial residual = 0.0111571, Final residual = 0.000860008, No Iterations 3
ExecutionTime = 2.44 s  ClockTime = 3 s

Time = 0.003

smoothSolver:  Solving for Ux, Initial residual = 0.00519551, Final residual = 0.000517941, No Iterations 3
smoothSolver:  Solving for Uy, Initial residual = 0.0369208, Final residual = 0.0026025, No Iterations 3
GAMG:  Solving for p, Initial residual = 0.018369, Final residual = 0.00110584, No Iterations 2
time step continuity errors : sum local = 3.12215e-06, global = 3.2087e-08, cumulative = 2.5823e-06
smoothSolver:  Solving for epsilon, Initial residual = 0.00139829, Final residual = 0.000129942, No Iterations 3
smoothSolver:  Solving for k, Initial residual = 0.0104659, Final residual = 0.000809769, No Iterations 3
ExecutionTime = 2.52 s  ClockTime = 3 s

Time = 0.0031

smoothSolver:  Solving for Ux, Initial residual = 0.00489357, Final residual = 0.000325428, No Iterations 4
smoothSolver:  Solving for Uy, Initial residual = 0.0349767, Final residual = 0.0025068, No Iterations 3
GAMG:  Solving for p, Initial residual = 0.0172911, Final residual = 0.00111239, No Iterations 2
time step continuity errors : sum local = 3.17196e-06, global = 9.85544e-09, cumulative = 2.59216e-06
smoothSolver:  Solving for epsilon, Initial residual = 0.00128939, Final residual = 0.000119925, No Iterations 3
smoothSolver:  Solving for k, Initial residual = 0.00985189, Final residual = 0.000773872, No Iterations 3
ExecutionTime = 2.6 s  ClockTime = 3 s

Time = 0.0032

smoothSolver:  Solving for Ux, Initial residual = 0.00462188, Final residual = 0.000318805, No Iterations 4
smoothSolver:  Solving for Uy, Initial residual = 0.0333883, Final residual = 0.00249266, No Iterations 3
GAMG:  Solving for p, Initial residual = 0.0162315, Final residual = 0.0011033, No Iterations 2
time step continuity errors : sum local = 3.17229e-06, global = -1.1964e-08, cumulative = 2.58019e-06
smoothSolver:  Solving for epsilon, Initial residual = 0.00118524, Final residual = 0.000110759, No Iterations 3
smoothSolver:  Solving for k, Initial residual = 0.00929681, Final residual = 0.000733448, No Iterations 3
ExecutionTime = 2.68 s  ClockTime = 3 s

Time = 0.0033

smoothSolver:  Solving for Ux, Initial residual = 0.00438666, Final residual = 0.000312878, No Iterations 4
smoothSolver:  Solving for Uy, Initial residual = 0.0318312, Final residual = 0.00249145, No Iterations 3
GAMG:  Solving for p, Initial residual = 0.0152701, Final residual = 0.0010768, No Iterations 2
time step continuity errors : sum local = 3.11982e-06, global = -3.39046e-08, cumulative = 2.54629e-06
smoothSolver:  Solving for epsilon, Initial residual = 0.00110994, Final residual = 0.000103388, No Iterations 3
smoothSolver:  Solving for k, Initial residual = 0.00871327, Final residual = 0.000699473, No Iterations 3
ExecutionTime = 2.75 s  ClockTime = 3 s

Time = 0.0034

smoothSolver:  Solving for Ux, Initial residual = 0.00416691, Final residual = 0.000308396, No Iterations 4
smoothSolver:  Solving for Uy, Initial residual = 0.0303364, Final residual = 0.0024885, No Iterations 3
GAMG:  Solving for p, Initial residual = 0.0143341, Final residual = 0.00103837, No Iterations 2
time step continuity errors : sum local = 3.02766e-06, global = -4.61456e-08, cumulative = 2.50014e-06
smoothSolver:  Solving for epsilon, Initial residual = 0.00101861, Final residual = 9.59559e-05, No Iterations 3
smoothSolver:  Solving for k, Initial residual = 0.00818439, Final residual = 0.000661127, No Iterations 3
ExecutionTime = 2.84 s  ClockTime = 3 s

Time = 0.0035

smoothSolver:  Solving for Ux, Initial residual = 0.00398542, Final residual = 0.000305426, No Iterations 4
smoothSolver:  Solving for Uy, Initial residual = 0.0289732, Final residual = 0.00247379, No Iterations 3
GAMG:  Solving for p, Initial residual = 0.0134899, Final residual = 0.0010007, No Iterations 2
time step continuity errors : sum local = 2.9346e-06, global = -5.36468e-08, cumulative = 2.44649e-06
smoothSolver:  Solving for epsilon, Initial residual = 0.000955967, Final residual = 9.01875e-05, No Iterations 3
smoothSolver:  Solving for k, Initial residual = 0.00766834, Final residual = 0.000633162, No Iterations 3
ExecutionTime = 2.94 s  ClockTime = 3 s

Time = 0.0036

smoothSolver:  Solving for Ux, Initial residual = 0.00381581, Final residual = 0.00030415, No Iterations 4
smoothSolver:  Solving for Uy, Initial residual = 0.0278646, Final residual = 0.00246045, No Iterations 3
GAMG:  Solving for p, Initial residual = 0.0126596, Final residual = 0.000957352, No Iterations 2
time step continuity errors : sum local = 2.82112e-06, global = -4.37435e-08, cumulative = 2.40275e-06
smoothSolver:  Solving for epsilon, Initial residual = 0.000896479, Final residual = 8.55407e-05, No Iterations 3
smoothSolver:  Solving for k, Initial residual = 0.00726834, Final residual = 0.000603766, No Iterations 3
ExecutionTime = 3.03 s  ClockTime = 3 s

Time = 0.0037

smoothSolver:  Solving for Ux, Initial residual = 0.0036796, Final residual = 0.000304459, No Iterations 4
smoothSolver:  Solving for Uy, Initial residual = 0.0267671, Final residual = 0.00245088, No Iterations 3
GAMG:  Solving for p, Initial residual = 0.0119024, Final residual = 0.000914753, No Iterations 2
time step continuity errors : sum local = 2.70868e-06, global = -3.11949e-08, cumulative = 2.37156e-06
smoothSolver:  Solving for epsilon, Initial residual = 0.000848473, Final residual = 8.11584e-05, No Iterations 3
smoothSolver:  Solving for k, Initial residual = 0.00669188, Final residual = 0.000565199, No Iterations 3
ExecutionTime = 3.12 s  ClockTime = 3 s

Time = 0.0038

smoothSolver:  Solving for Ux, Initial residual = 0.0035446, Final residual = 0.000306081, No Iterations 4
smoothSolver:  Solving for Uy, Initial residual = 0.0259139, Final residual = 0.00245871, No Iterations 3
GAMG:  Solving for p, Initial residual = 0.0112018, Final residual = 0.000866263, No Iterations 2
time step continuity errors : sum local = 2.57455e-06, global = -5.99084e-09, cumulative = 2.36556e-06
smoothSolver:  Solving for epsilon, Initial residual = 0.000799662, Final residual = 7.68829e-05, No Iterations 3
smoothSolver:  Solving for k, Initial residual = 0.00622214, Final residual = 0.000532741, No Iterations 3
ExecutionTime = 3.2 s  ClockTime = 3 s

Time = 0.0039

smoothSolver:  Solving for Ux, Initial residual = 0.00344054, Final residual = 0.000308805, No Iterations 4
smoothSolver:  Solving for Uy, Initial residual = 0.0250309, Final residual = 0.00248153, No Iterations 3
GAMG:  Solving for p, Initial residual = 0.0105801, Final residual = 0.000828562, No Iterations 2
time step continuity errors : sum local = 2.47185e-06, global = 1.15664e-08, cumulative = 2.37713e-06
smoothSolver:  Solving for epsilon, Initial residual = 0.000761986, Final residual = 7.32086e-05, No Iterations 3
smoothSolver:  Solving for k, Initial residual = 0.00580409, Final residual = 0.000504875, No Iterations 3
ExecutionTime = 3.27 s  ClockTime = 3 s

Time = 0.004

smoothSolver:  Solving for Ux, Initial residual = 0.00335519, Final residual = 0.000312098, No Iterations 4
smoothSolver:  Solving for Uy, Initial residual = 0.0244484, Final residual = 0.00163718, No Iterations 4
GAMG:  Solving for p, Initial residual = 0.0100247, Final residual = 0.000804089, No Iterations 2
time step continuity errors : sum local = 2.40715e-06, global = 2.96224e-08, cumulative = 2.40675e-06
smoothSolver:  Solving for epsilon, Initial residual = 0.000719814, Final residual = 6.95977e-05, No Iterations 3
smoothSolver:  Solving for k, Initial residual = 0.00543893, Final residual = 0.000486848, No Iterations 3
ExecutionTime = 3.37 s  ClockTime = 4 s

Time = 0.0041

smoothSolver:  Solving for Ux, Initial residual = 0.00328731, Final residual = 0.000317726, No Iterations 4
smoothSolver:  Solving for Uy, Initial residual = 0.0235284, Final residual = 0.0016436, No Iterations 4
GAMG:  Solving for p, Initial residual = 0.00954896, Final residual = 0.000773716, No Iterations 2
time step continuity errors : sum local = 2.32499e-06, global = 3.9131e-08, cumulative = 2.44588e-06
smoothSolver:  Solving for epsilon, Initial residual = 0.000683014, Final residual = 6.63119e-05, No Iterations 3
smoothSolver:  Solving for k, Initial residual = 0.00512069, Final residual = 0.0004682, No Iterations 3
ExecutionTime = 3.45 s  ClockTime = 4 s

Time = 0.0042

smoothSolver:  Solving for Ux, Initial residual = 0.00321162, Final residual = 0.000218785, No Iterations 5
smoothSolver:  Solving for Uy, Initial residual = 0.0228339, Final residual = 0.00167188, No Iterations 4
GAMG:  Solving for p, Initial residual = 0.00908525, Final residual = 0.000750301, No Iterations 2
time step continuity errors : sum local = 2.26109e-06, global = 5.79952e-08, cumulative = 2.50388e-06
smoothSolver:  Solving for epsilon, Initial residual = 0.000648745, Final residual = 6.32619e-05, No Iterations 3
smoothSolver:  Solving for k, Initial residual = 0.00481701, Final residual = 0.000444423, No Iterations 3
ExecutionTime = 3.53 s  ClockTime = 4 s

Time = 0.0043

smoothSolver:  Solving for Ux, Initial residual = 0.00314097, Final residual = 0.000221572, No Iterations 5
smoothSolver:  Solving for Uy, Initial residual = 0.0222795, Final residual = 0.00175176, No Iterations 4
GAMG:  Solving for p, Initial residual = 0.00866462, Final residual = 0.000729566, No Iterations 2
time step continuity errors : sum local = 2.20482e-06, global = 6.28883e-08, cumulative = 2.56677e-06
smoothSolver:  Solving for epsilon, Initial residual = 0.000620844, Final residual = 6.07801e-05, No Iterations 3
smoothSolver:  Solving for k, Initial residual = 0.004538, Final residual = 0.000429551, No Iterations 3
ExecutionTime = 3.6 s  ClockTime = 4 s

Time = 0.0044

smoothSolver:  Solving for Ux, Initial residual = 0.00306953, Final residual = 0.000224198, No Iterations 5
smoothSolver:  Solving for Uy, Initial residual = 0.0219957, Final residual = 0.00184293, No Iterations 4
GAMG:  Solving for p, Initial residual = 0.00822314, Final residual = 0.000699101, No Iterations 2
time step continuity errors : sum local = 2.11979e-06, global = 6.15138e-08, cumulative = 2.62828e-06
smoothSolver:  Solving for epsilon, Initial residual = 0.000595637, Final residual = 5.88594e-05, No Iterations 3
smoothSolver:  Solving for k, Initial residual = 0.0043103, Final residual = 0.000415332, No Iterations 3
ExecutionTime = 3.68 s  ClockTime = 4 s

Time = 0.0045

smoothSolver:  Solving for Ux, Initial residual = 0.00300233, Final residual = 0.000226883, No Iterations 5
smoothSolver:  Solving for Uy, Initial residual = 0.0215025, Final residual = 0.00192664, No Iterations 4
GAMG:  Solving for p, Initial residual = 0.00779702, Final residual = 0.000684744, No Iterations 2
time step continuity errors : sum local = 2.08449e-06, global = 5.3887e-08, cumulative = 2.68217e-06
smoothSolver:  Solving for epsilon, Initial residual = 0.000565364, Final residual = 5.64692e-05, No Iterations 3
smoothSolver:  Solving for k, Initial residual = 0.00412587, Final residual = 0.000406994, No Iterations 3
ExecutionTime = 3.77 s  ClockTime = 4 s

Time = 0.0046

smoothSolver:  Solving for Ux, Initial residual = 0.0029296, Final residual = 0.000228809, No Iterations 5
smoothSolver:  Solving for Uy, Initial residual = 0.0212642, Final residual = 0.00199863, No Iterations 4
GAMG:  Solving for p, Initial residual = 0.00738414, Final residual = 0.000684269, No Iterations 2
time step continuity errors : sum local = 2.09197e-06, global = 4.63156e-08, cumulative = 2.72848e-06
smoothSolver:  Solving for epsilon, Initial residual = 0.000540303, Final residual = 3.18361e-05, No Iterations 4
smoothSolver:  Solving for k, Initial residual = 0.00387778, Final residual = 0.000243061, No Iterations 4
ExecutionTime = 3.85 s  ClockTime = 4 s

Time = 0.0047

smoothSolver:  Solving for Ux, Initial residual = 0.00288126, Final residual = 0.000230225, No Iterations 5
smoothSolver:  Solving for Uy, Initial residual = 0.0210222, Final residual = 0.00206143, No Iterations 4
GAMG:  Solving for p, Initial residual = 0.00704293, Final residual = 0.000693864, No Iterations 2
time step continuity errors : sum local = 2.13065e-06, global = 3.93041e-08, cumulative = 2.76779e-06
smoothSolver:  Solving for epsilon, Initial residual = 0.000516249, Final residual = 3.05302e-05, No Iterations 4
smoothSolver:  Solving for k, Initial residual = 0.00366139, Final residual = 0.000233455, No Iterations 4
ExecutionTime = 3.93 s  ClockTime = 4 s

Time = 0.0048

smoothSolver:  Solving for Ux, Initial residual = 0.00284386, Final residual = 0.000230649, No Iterations 5
smoothSolver:  Solving for Uy, Initial residual = 0.0209557, Final residual = 0.00141367, No Iterations 5
GAMG:  Solving for p, Initial residual = 0.00673915, Final residual = 0.000469354, No Iterations 3
time step continuity errors : sum local = 1.44836e-06, global = 5.16115e-08, cumulative = 2.8194e-06
smoothSolver:  Solving for epsilon, Initial residual = 0.000501885, Final residual = 2.97315e-05, No Iterations 4
smoothSolver:  Solving for k, Initial residual = 0.00351253, Final residual = 0.000223879, No Iterations 4
ExecutionTime = 4.01 s  ClockTime = 4 s

Time = 0.0049

smoothSolver:  Solving for Ux, Initial residual = 0.00288712, Final residual = 0.000231168, No Iterations 5
smoothSolver:  Solving for Uy, Initial residual = 0.0216321, Final residual = 0.00143877, No Iterations 5
GAMG:  Solving for p, Initial residual = 0.00638407, Final residual = 0.000530126, No Iterations 2
time step continuity errors : sum local = 1.65885e-06, global = -3.27168e-08, cumulative = 2.78668e-06
smoothSolver:  Solving for epsilon, Initial residual = 0.000473844, Final residual = 2.8198e-05, No Iterations 4
smoothSolver:  Solving for k, Initial residual = 0.0033316, Final residual = 0.0002116, No Iterations 4
ExecutionTime = 4.1 s  ClockTime = 4 s

Time = 0.005

smoothSolver:  Solving for Ux, Initial residual = 0.00278151, Final residual = 0.000231724, No Iterations 5
smoothSolver:  Solving for Uy, Initial residual = 0.020156, Final residual = 0.0014086, No Iterations 5
GAMG:  Solving for p, Initial residual = 0.0062061, Final residual = 0.000467103, No Iterations 3
time step continuity errors : sum local = 1.46172e-06, global = 3.56142e-08, cumulative = 2.8223e-06
smoothSolver:  Solving for epsilon, Initial residual = 0.00045431, Final residual = 2.70916e-05, No Iterations 4
smoothSolver:  Solving for k, Initial residual = 0.00321597, Final residual = 0.000317282, No Iterations 3
ExecutionTime = 4.19 s  ClockTime = 4 s

Time = 0.0051

smoothSolver:  Solving for Ux, Initial residual = 0.00282732, Final residual = 0.000226497, No Iterations 5
smoothSolver:  Solving for Uy, Initial residual = 0.021227, Final residual = 0.00144574, No Iterations 5
GAMG:  Solving for p, Initial residual = 0.00588758, Final residual = 0.000570526, No Iterations 2
time step continuity errors : sum local = 1.80159e-06, global = -2.14346e-08, cumulative = 2.80086e-06
smoothSolver:  Solving for epsilon, Initial residual = 0.000422688, Final residual = 2.50367e-05, No Iterations 4
smoothSolver:  Solving for k, Initial residual = 0.00303909, Final residual = 0.000292586, No Iterations 3
ExecutionTime = 4.3 s  ClockTime = 5 s

Time = 0.0052

smoothSolver:  Solving for Ux, Initial residual = 0.00269657, Final residual = 0.000223656, No Iterations 5
smoothSolver:  Solving for Uy, Initial residual = 0.0200547, Final residual = 0.00141949, No Iterations 5
GAMG:  Solving for p, Initial residual = 0.00572465, Final residual = 0.000460074, No Iterations 3
time step continuity errors : sum local = 1.45583e-06, global = 4.11139e-08, cumulative = 2.84198e-06
smoothSolver:  Solving for epsilon, Initial residual = 0.000396526, Final residual = 2.35186e-05, No Iterations 4
smoothSolver:  Solving for k, Initial residual = 0.00294196, Final residual = 0.000278731, No Iterations 3
ExecutionTime = 4.39 s  ClockTime = 5 s

Time = 0.0053

smoothSolver:  Solving for Ux, Initial residual = 0.00273991, Final residual = 0.00021612, No Iterations 5
smoothSolver:  Solving for Uy, Initial residual = 0.0210517, Final residual = 0.00142472, No Iterations 5
GAMG:  Solving for p, Initial residual = 0.00547878, Final residual = 0.000345752, No Iterations 3
time step continuity errors : sum local = 1.10852e-06, global = 2.41761e-08, cumulative = 2.86615e-06
smoothSolver:  Solving for epsilon, Initial residual = 0.000375527, Final residual = 2.20338e-05, No Iterations 4
smoothSolver:  Solving for k, Initial residual = 0.0028215, Final residual = 0.0002671, No Iterations 3
ExecutionTime = 4.47 s  ClockTime = 5 s

Time = 0.0054

smoothSolver:  Solving for Ux, Initial residual = 0.00264833, Final residual = 0.000210673, No Iterations 5
smoothSolver:  Solving for Uy, Initial residual = 0.020332, Final residual = 0.0014078, No Iterations 5
GAMG:  Solving for p, Initial residual = 0.00529299, Final residual = 0.000324277, No Iterations 3
time step continuity errors : sum local = 1.04589e-06, global = 2.28349e-08, cumulative = 2.88899e-06
smoothSolver:  Solving for epsilon, Initial residual = 0.000361157, Final residual = 2.09254e-05, No Iterations 4
smoothSolver:  Solving for k, Initial residual = 0.0027557, Final residual = 0.000254507, No Iterations 3
ExecutionTime = 4.55 s  ClockTime = 5 s

Time = 0.0055

smoothSolver:  Solving for Ux, Initial residual = 0.00258907, Final residual = 0.000204607, No Iterations 5
smoothSolver:  Solving for Uy, Initial residual = 0.0197968, Final residual = 0.00137998, No Iterations 5
GAMG:  Solving for p, Initial residual = 0.00514762, Final residual = 0.000325846, No Iterations 3
time step continuity errors : sum local = 1.05672e-06, global = 2.71666e-08, cumulative = 2.91615e-06
smoothSolver:  Solving for epsilon, Initial residual = 0.000344942, Final residual = 3.43735e-05, No Iterations 3
smoothSolver:  Solving for k, Initial residual = 0.00265138, Final residual = 0.000246917, No Iterations 3
ExecutionTime = 4.63 s  ClockTime = 5 s

Time = 0.0056

smoothSolver:  Solving for Ux, Initial residual = 0.00253763, Final residual = 0.00019856, No Iterations 5
smoothSolver:  Solving for Uy, Initial residual = 0.0194925, Final residual = 0.00134053, No Iterations 5
GAMG:  Solving for p, Initial residual = 0.00500411, Final residual = 0.000322752, No Iterations 3
time step continuity errors : sum local = 1.05309e-06, global = 2.87879e-08, cumulative = 2.94494e-06
smoothSolver:  Solving for epsilon, Initial residual = 0.000336806, Final residual = 1.96742e-05, No Iterations 4
smoothSolver:  Solving for k, Initial residual = 0.00263346, Final residual = 0.000234607, No Iterations 3
ExecutionTime = 4.71 s  ClockTime = 5 s

Time = 0.0057

smoothSolver:  Solving for Ux, Initial residual = 0.00248395, Final residual = 0.000193428, No Iterations 5
smoothSolver:  Solving for Uy, Initial residual = 0.0189699, Final residual = 0.0012896, No Iterations 5
GAMG:  Solving for p, Initial residual = 0.00486763, Final residual = 0.000312699, No Iterations 3
time step continuity errors : sum local = 1.02656e-06, global = 2.69975e-08, cumulative = 2.97194e-06
smoothSolver:  Solving for epsilon, Initial residual = 0.000320521, Final residual = 3.20366e-05, No Iterations 3
smoothSolver:  Solving for k, Initial residual = 0.00257204, Final residual = 0.000228458, No Iterations 3
ExecutionTime = 4.8 s  ClockTime = 5 s

Time = 0.0058

smoothSolver:  Solving for Ux, Initial residual = 0.00241991, Final residual = 0.000188617, No Iterations 5
smoothSolver:  Solving for Uy, Initial residual = 0.0183046, Final residual = 0.00122697, No Iterations 5
GAMG:  Solving for p, Initial residual = 0.00472403, Final residual = 0.000300275, No Iterations 3
time step continuity errors : sum local = 9.90557e-07, global = 2.50591e-08, cumulative = 2.997e-06
smoothSolver:  Solving for epsilon, Initial residual = 0.000313243, Final residual = 1.84149e-05, No Iterations 4
smoothSolver:  Solving for k, Initial residual = 0.00253196, Final residual = 0.000221426, No Iterations 3
ExecutionTime = 4.89 s  ClockTime = 5 s

Time = 0.0059

smoothSolver:  Solving for Ux, Initial residual = 0.0023603, Final residual = 0.000184135, No Iterations 5
smoothSolver:  Solving for Uy, Initial residual = 0.0175717, Final residual = 0.00115815, No Iterations 5
GAMG:  Solving for p, Initial residual = 0.0045943, Final residual = 0.000284452, No Iterations 3
time step continuity errors : sum local = 9.41906e-07, global = 2.25646e-08, cumulative = 3.01956e-06
smoothSolver:  Solving for epsilon, Initial residual = 0.000296273, Final residual = 1.73618e-05, No Iterations 4
smoothSolver:  Solving for k, Initial residual = 0.00244027, Final residual = 0.00021329, No Iterations 3
ExecutionTime = 4.98 s  ClockTime = 5 s

Time = 0.006

smoothSolver:  Solving for Ux, Initial residual = 0.00229154, Final residual = 0.000179066, No Iterations 5
smoothSolver:  Solving for Uy, Initial residual = 0.0168416, Final residual = 0.00166577, No Iterations 4
GAMG:  Solving for p, Initial residual = 0.00445201, Final residual = 0.000438497, No Iterations 2
time step continuity errors : sum local = 1.45539e-06, global = 3.09144e-09, cumulative = 3.02266e-06
smoothSolver:  Solving for epsilon, Initial residual = 0.000283149, Final residual = 1.65403e-05, No Iterations 4
smoothSolver:  Solving for k, Initial residual = 0.00240439, Final residual = 0.000206309, No Iterations 3
ExecutionTime = 5.07 s  ClockTime = 5 s

Time = 0.0061

smoothSolver:  Solving for Ux, Initial residual = 0.00216824, Final residual = 0.000173345, No Iterations 5
smoothSolver:  Solving for Uy, Initial residual = 0.0156349, Final residual = 0.00102686, No Iterations 5
GAMG:  Solving for p, Initial residual = 0.00438695, Final residual = 0.000310556, No Iterations 3
time step continuity errors : sum local = 1.03055e-06, global = 3.5464e-08, cumulative = 3.05812e-06
smoothSolver:  Solving for epsilon, Initial residual = 0.000269082, Final residual = 1.57518e-05, No Iterations 4
smoothSolver:  Solving for k, Initial residual = 0.00232969, Final residual = 0.000201724, No Iterations 3
ExecutionTime = 5.16 s  ClockTime = 5 s

Time = 0.0062

smoothSolver:  Solving for Ux, Initial residual = 0.00215933, Final residual = 0.00016599, No Iterations 5
smoothSolver:  Solving for Uy, Initial residual = 0.0158507, Final residual = 0.00148918, No Iterations 4
GAMG:  Solving for p, Initial residual = 0.00420926, Final residual = 0.000371567, No Iterations 2
time step continuity errors : sum local = 1.23523e-06, global = 1.39233e-09, cumulative = 3.05951e-06
smoothSolver:  Solving for epsilon, Initial residual = 0.000257807, Final residual = 1.51407e-05, No Iterations 4
smoothSolver:  Solving for k, Initial residual = 0.00231021, Final residual = 0.000194921, No Iterations 3
ExecutionTime = 5.24 s  ClockTime = 6 s

Time = 0.0063

smoothSolver:  Solving for Ux, Initial residual = 0.00200669, Final residual = 0.00016046, No Iterations 5
smoothSolver:  Solving for Uy, Initial residual = 0.0143433, Final residual = 0.00140867, No Iterations 4
GAMG:  Solving for p, Initial residual = 0.00411357, Final residual = 0.000245822, No Iterations 3
time step continuity errors : sum local = 8.16267e-07, global = 2.78432e-08, cumulative = 3.08735e-06
smoothSolver:  Solving for epsilon, Initial residual = 0.000246284, Final residual = 1.45827e-05, No Iterations 4
smoothSolver:  Solving for k, Initial residual = 0.00223519, Final residual = 0.000194504, No Iterations 3
ExecutionTime = 5.35 s  ClockTime = 6 s

Time = 0.0064

smoothSolver:  Solving for Ux, Initial residual = 0.00197762, Final residual = 0.000152642, No Iterations 5
smoothSolver:  Solving for Uy, Initial residual = 0.0143987, Final residual = 0.0013974, No Iterations 4
GAMG:  Solving for p, Initial residual = 0.00395163, Final residual = 0.000300209, No Iterations 2
time step continuity errors : sum local = 9.95556e-07, global = -3.0484e-10, cumulative = 3.08705e-06
smoothSolver:  Solving for epsilon, Initial residual = 0.000236592, Final residual = 1.41081e-05, No Iterations 4
smoothSolver:  Solving for k, Initial residual = 0.00222399, Final residual = 0.000191087, No Iterations 3
ExecutionTime = 5.44 s  ClockTime = 6 s

Time = 0.0065

smoothSolver:  Solving for Ux, Initial residual = 0.00183947, Final residual = 0.000147707, No Iterations 5
smoothSolver:  Solving for Uy, Initial residual = 0.0130865, Final residual = 0.000883339, No Iterations 5
GAMG:  Solving for p, Initial residual = 0.00387253, Final residual = 0.000342734, No Iterations 2
time step continuity errors : sum local = 1.13443e-06, global = 9.8242e-09, cumulative = 3.09687e-06
smoothSolver:  Solving for epsilon, Initial residual = 0.000225352, Final residual = 1.36036e-05, No Iterations 4
smoothSolver:  Solving for k, Initial residual = 0.0021222, Final residual = 0.000191024, No Iterations 3
ExecutionTime = 5.52 s  ClockTime = 6 s

Time = 0.0066

smoothSolver:  Solving for Ux, Initial residual = 0.00177254, Final residual = 0.000142125, No Iterations 5
smoothSolver:  Solving for Uy, Initial residual = 0.0125797, Final residual = 0.000852297, No Iterations 5
GAMG:  Solving for p, Initial residual = 0.00372887, Final residual = 0.000339701, No Iterations 2
time step continuity errors : sum local = 1.12113e-06, global = 1.96993e-08, cumulative = 3.11657e-06
smoothSolver:  Solving for epsilon, Initial residual = 0.000216927, Final residual = 1.33111e-05, No Iterations 4
smoothSolver:  Solving for k, Initial residual = 0.00207605, Final residual = 0.000190247, No Iterations 3
ExecutionTime = 5.6 s  ClockTime = 6 s

Time = 0.0067

smoothSolver:  Solving for Ux, Initial residual = 0.00172366, Final residual = 0.000136917, No Iterations 5
smoothSolver:  Solving for Uy, Initial residual = 0.0121301, Final residual = 0.000823028, No Iterations 5
GAMG:  Solving for p, Initial residual = 0.00362617, Final residual = 0.000327644, No Iterations 2
time step continuity errors : sum local = 1.07784e-06, global = 1.25208e-08, cumulative = 3.12909e-06
smoothSolver:  Solving for epsilon, Initial residual = 0.000207363, Final residual = 1.29356e-05, No Iterations 4
bounding epsilon, min: -0.0459619 max: 2.31676e+06 average: 2525.56
smoothSolver:  Solving for k, Initial residual = 0.00200452, Final residual = 0.000191579, No Iterations 3
ExecutionTime = 5.68 s  ClockTime = 6 s

Time = 0.0068

smoothSolver:  Solving for Ux, Initial residual = 0.00168557, Final residual = 0.000132967, No Iterations 5
smoothSolver:  Solving for Uy, Initial residual = 0.0119041, Final residual = 0.000796398, No Iterations 5
GAMG:  Solving for p, Initial residual = 0.00352654, Final residual = 0.000332911, No Iterations 2
time step continuity errors : sum local = 1.09134e-06, global = 1.16898e-09, cumulative = 3.13026e-06
smoothSolver:  Solving for epsilon, Initial residual = 0.00020054, Final residual = 1.26642e-05, No Iterations 4
smoothSolver:  Solving for k, Initial residual = 0.00193932, Final residual = 0.000189886, No Iterations 3
ExecutionTime = 5.75 s  ClockTime = 6 s

Time = 0.0069

smoothSolver:  Solving for Ux, Initial residual = 0.00166687, Final residual = 0.000130344, No Iterations 5
smoothSolver:  Solving for Uy, Initial residual = 0.0118459, Final residual = 0.00116537, No Iterations 4
GAMG:  Solving for p, Initial residual = 0.00342313, Final residual = 0.000205134, No Iterations 3
time step continuity errors : sum local = 6.70005e-07, global = -2.8912e-09, cumulative = 3.12737e-06
smoothSolver:  Solving for epsilon, Initial residual = 0.000192999, Final residual = 1.2276e-05, No Iterations 4
smoothSolver:  Solving for k, Initial residual = 0.00188559, Final residual = 0.000120924, No Iterations 4
ExecutionTime = 5.84 s  ClockTime = 6 s

Time = 0.007

smoothSolver:  Solving for Ux, Initial residual = 0.00169531, Final residual = 0.000128026, No Iterations 5
smoothSolver:  Solving for Uy, Initial residual = 0.012639, Final residual = 0.00118768, No Iterations 4
GAMG:  Solving for p, Initial residual = 0.00338343, Final residual = 0.000270817, No Iterations 2
time step continuity errors : sum local = 8.803e-07, global = -1.17159e-08, cumulative = 3.11566e-06
smoothSolver:  Solving for epsilon, Initial residual = 0.000190456, Final residual = 1.22825e-05, No Iterations 4
bounding epsilon, min: -0.622515 max: 2.42921e+06 average: 2674.46
smoothSolver:  Solving for k, Initial residual = 0.00186653, Final residual = 0.000118231, No Iterations 4
ExecutionTime = 5.95 s  ClockTime = 6 s

Time = 0.0071

smoothSolver:  Solving for Ux, Initial residual = 0.00164511, Final residual = 0.000126011, No Iterations 5
smoothSolver:  Solving for Uy, Initial residual = 0.0118685, Final residual = 0.00113541, No Iterations 4
GAMG:  Solving for p, Initial residual = 0.00332725, Final residual = 0.000209836, No Iterations 3
time step continuity errors : sum local = 6.80652e-07, global = -7.62498e-09, cumulative = 3.10803e-06
smoothSolver:  Solving for epsilon, Initial residual = 0.000187053, Final residual = 1.21676e-05, No Iterations 4
smoothSolver:  Solving for k, Initial residual = 0.00180933, Final residual = 0.000117134, No Iterations 4
ExecutionTime = 6.04 s  ClockTime = 6 s

Time = 0.0072

smoothSolver:  Solving for Ux, Initial residual = 0.00169851, Final residual = 0.00012499, No Iterations 5
smoothSolver:  Solving for Uy, Initial residual = 0.0128066, Final residual = 0.00111458, No Iterations 4
GAMG:  Solving for p, Initial residual = 0.00330908, Final residual = 0.000301903, No Iterations 2
time step continuity errors : sum local = 9.764e-07, global = -1.45463e-08, cumulative = 3.09348e-06
smoothSolver:  Solving for epsilon, Initial residual = 0.000182599, Final residual = 1.19675e-05, No Iterations 4
smoothSolver:  Solving for k, Initial residual = 0.00176873, Final residual = 0.000115764, No Iterations 4
ExecutionTime = 6.13 s  ClockTime = 6 s

Time = 0.0073

smoothSolver:  Solving for Ux, Initial residual = 0.00166373, Final residual = 0.000123196, No Iterations 5
smoothSolver:  Solving for Uy, Initial residual = 0.0120052, Final residual = 0.00105334, No Iterations 4
GAMG:  Solving for p, Initial residual = 0.00327803, Final residual = 0.000222771, No Iterations 3
time step continuity errors : sum local = 7.19203e-07, global = -1.00207e-08, cumulative = 3.08346e-06
smoothSolver:  Solving for epsilon, Initial residual = 0.000173561, Final residual = 1.15801e-05, No Iterations 4
bounding epsilon, min: -0.219769 max: 2.54457e+06 average: 2827.54
smoothSolver:  Solving for k, Initial residual = 0.00170832, Final residual = 0.000112913, No Iterations 4
ExecutionTime = 6.22 s  ClockTime = 7 s

Time = 0.0074

smoothSolver:  Solving for Ux, Initial residual = 0.00171712, Final residual = 0.000122171, No Iterations 5
smoothSolver:  Solving for Uy, Initial residual = 0.0128605, Final residual = 0.00103881, No Iterations 4
GAMG:  Solving for p, Initial residual = 0.0032827, Final residual = 0.000306932, No Iterations 2
time step continuity errors : sum local = 9.87664e-07, global = -2.16577e-08, cumulative = 3.06181e-06
smoothSolver:  Solving for epsilon, Initial residual = 0.000167951, Final residual = 1.12396e-05, No Iterations 4
bounding epsilon, min: -0.086169 max: 2.57886e+06 average: 2875.64
smoothSolver:  Solving for k, Initial residual = 0.0016766, Final residual = 0.000109632, No Iterations 4
ExecutionTime = 6.3 s  ClockTime = 7 s

Time = 0.0075

smoothSolver:  Solving for Ux, Initial residual = 0.0016578, Final residual = 0.000119603, No Iterations 5
smoothSolver:  Solving for Uy, Initial residual = 0.0118031, Final residual = 0.000985374, No Iterations 4
GAMG:  Solving for p, Initial residual = 0.00326467, Final residual = 0.000226841, No Iterations 3
time step continuity errors : sum local = 7.28781e-07, global = -1.1959e-08, cumulative = 3.04985e-06
smoothSolver:  Solving for epsilon, Initial residual = 0.000160961, Final residual = 1.07934e-05, No Iterations 4
smoothSolver:  Solving for k, Initial residual = 0.00161941, Final residual = 0.000105796, No Iterations 4
ExecutionTime = 6.38 s  ClockTime = 7 s

Time = 0.0076

smoothSolver:  Solving for Ux, Initial residual = 0.00167019, Final residual = 0.000117693, No Iterations 5
smoothSolver:  Solving for Uy, Initial residual = 0.0124916, Final residual = 0.000984795, No Iterations 4
GAMG:  Solving for p, Initial residual = 0.00325267, Final residual = 0.000297435, No Iterations 2
time step continuity errors : sum local = 9.51741e-07, global = -2.4217e-08, cumulative = 3.02563e-06
smoothSolver:  Solving for epsilon, Initial residual = 0.000155302, Final residual = 1.03574e-05, No Iterations 4
smoothSolver:  Solving for k, Initial residual = 0.00159023, Final residual = 0.000102128, No Iterations 4
ExecutionTime = 6.45 s  ClockTime = 7 s

Time = 0.0077

smoothSolver:  Solving for Ux, Initial residual = 0.00157316, Final residual = 0.000113967, No Iterations 5
smoothSolver:  Solving for Uy, Initial residual = 0.0112458, Final residual = 0.000943455, No Iterations 4
GAMG:  Solving for p, Initial residual = 0.00320278, Final residual = 0.000214516, No Iterations 3
time step continuity errors : sum local = 6.85498e-07, global = -1.12039e-08, cumulative = 3.01443e-06
smoothSolver:  Solving for epsilon, Initial residual = 0.000147229, Final residual = 9.86843e-06, No Iterations 4
smoothSolver:  Solving for k, Initial residual = 0.00152524, Final residual = 9.7789e-05, No Iterations 4
ExecutionTime = 6.54 s  ClockTime = 7 s

Time = 0.0078

smoothSolver:  Solving for Ux, Initial residual = 0.00154821, Final residual = 0.000111119, No Iterations 5
smoothSolver:  Solving for Uy, Initial residual = 0.0117093, Final residual = 0.000948528, No Iterations 4
GAMG:  Solving for p, Initial residual = 0.00317967, Final residual = 0.000268734, No Iterations 2
time step continuity errors : sum local = 8.55445e-07, global = -2.07635e-08, cumulative = 2.99366e-06
smoothSolver:  Solving for epsilon, Initial residual = 0.000140439, Final residual = 9.41403e-06, No Iterations 4
bounding epsilon, min: -0.0345551 max: 2.70323e+06 average: 3055.25
smoothSolver:  Solving for k, Initial residual = 0.00147931, Final residual = 0.000147645, No Iterations 3
ExecutionTime = 6.62 s  ClockTime = 7 s

Time = 0.0079

smoothSolver:  Solving for Ux, Initial residual = 0.00142835, Final residual = 0.000106721, No Iterations 5
smoothSolver:  Solving for Uy, Initial residual = 0.010483, Final residual = 0.000918141, No Iterations 4
GAMG:  Solving for p, Initial residual = 0.00311232, Final residual = 0.000189588, No Iterations 3
time step continuity errors : sum local = 6.03018e-07, global = -9.29728e-09, cumulative = 2.98437e-06
smoothSolver:  Solving for epsilon, Initial residual = 0.000130559, Final residual = 8.70705e-06, No Iterations 4
smoothSolver:  Solving for k, Initial residual = 0.00141882, Final residual = 0.00014121, No Iterations 3
ExecutionTime = 6.72 s  ClockTime = 7 s

Time = 0.008

smoothSolver:  Solving for Ux, Initial residual = 0.00137015, Final residual = 0.000103469, No Iterations 5
smoothSolver:  Solving for Uy, Initial residual = 0.0106666, Final residual = 0.000929923, No Iterations 4
GAMG:  Solving for p, Initial residual = 0.00305955, Final residual = 0.000225564, No Iterations 2
time step continuity errors : sum local = 7.15231e-07, global = -1.63654e-08, cumulative = 2.968e-06
smoothSolver:  Solving for epsilon, Initial residual = 0.000121498, Final residual = 8.11573e-06, No Iterations 4
smoothSolver:  Solving for k, Initial residual = 0.00139054, Final residual = 0.000135368, No Iterations 3
ExecutionTime = 6.81 s  ClockTime = 7 s

Time = 0.0081

smoothSolver:  Solving for Ux, Initial residual = 0.00125993, Final residual = 9.91739e-05, No Iterations 5
smoothSolver:  Solving for Uy, Initial residual = 0.00957646, Final residual = 0.000904389, No Iterations 4
GAMG:  Solving for p, Initial residual = 0.00297382, Final residual = 0.000272501, No Iterations 2
time step continuity errors : sum local = 8.63615e-07, global = -2.61376e-08, cumulative = 2.94186e-06
smoothSolver:  Solving for epsilon, Initial residual = 0.00011357, Final residual = 7.56755e-06, No Iterations 4
smoothSolver:  Solving for k, Initial residual = 0.00131538, Final residual = 0.000129145, No Iterations 3
ExecutionTime = 6.88 s  ClockTime = 7 s

Time = 0.0082

smoothSolver:  Solving for Ux, Initial residual = 0.00118824, Final residual = 9.59039e-05, No Iterations 5
smoothSolver:  Solving for Uy, Initial residual = 0.00913723, Final residual = 0.000876818, No Iterations 4
GAMG:  Solving for p, Initial residual = 0.00288206, Final residual = 0.000262375, No Iterations 2
time step continuity errors : sum local = 8.30816e-07, global = -2.3884e-08, cumulative = 2.91798e-06
smoothSolver:  Solving for epsilon, Initial residual = 0.00010791, Final residual = 7.14429e-06, No Iterations 4
smoothSolver:  Solving for k, Initial residual = 0.00128407, Final residual = 0.000125011, No Iterations 3
ExecutionTime = 6.96 s  ClockTime = 7 s

Time = 0.0083

smoothSolver:  Solving for Ux, Initial residual = 0.00113129, Final residual = 9.31678e-05, No Iterations 5
smoothSolver:  Solving for Uy, Initial residual = 0.00876313, Final residual = 0.000855723, No Iterations 4
GAMG:  Solving for p, Initial residual = 0.00279273, Final residual = 0.000231977, No Iterations 2
time step continuity errors : sum local = 7.3342e-07, global = -1.88819e-08, cumulative = 2.8991e-06
smoothSolver:  Solving for epsilon, Initial residual = 0.000102587, Final residual = 6.76096e-06, No Iterations 4
smoothSolver:  Solving for k, Initial residual = 0.00122558, Final residual = 0.000119567, No Iterations 3
ExecutionTime = 7.03 s  ClockTime = 7 s

Time = 0.0084

smoothSolver:  Solving for Ux, Initial residual = 0.00107064, Final residual = 9.05537e-05, No Iterations 5
smoothSolver:  Solving for Uy, Initial residual = 0.00835484, Final residual = 0.000833842, No Iterations 4
GAMG:  Solving for p, Initial residual = 0.00267596, Final residual = 0.000208167, No Iterations 2
time step continuity errors : sum local = 6.57161e-07, global = -1.55132e-08, cumulative = 2.88358e-06
smoothSolver:  Solving for epsilon, Initial residual = 9.7383e-05, Final residual = 6.40599e-06, No Iterations 4
smoothSolver:  Solving for k, Initial residual = 0.00117948, Final residual = 0.000115527, No Iterations 3
ExecutionTime = 7.12 s  ClockTime = 7 s

Time = 0.0085

smoothSolver:  Solving for Ux, Initial residual = 0.0010228, Final residual = 8.8151e-05, No Iterations 5
smoothSolver:  Solving for Uy, Initial residual = 0.00788399, Final residual = 0.000548175, No Iterations 5
GAMG:  Solving for p, Initial residual = 0.00255031, Final residual = 0.00019614, No Iterations 2
time step continuity errors : sum local = 6.18467e-07, global = -1.25948e-08, cumulative = 2.87099e-06
smoothSolver:  Solving for epsilon, Initial residual = 9.25191e-05, Final residual = 6.10724e-06, No Iterations 4
smoothSolver:  Solving for k, Initial residual = 0.00112974, Final residual = 0.000110655, No Iterations 3
ExecutionTime = 7.21 s  ClockTime = 8 s

Time = 0.0086

smoothSolver:  Solving for Ux, Initial residual = 0.000983474, Final residual = 8.61659e-05, No Iterations 5
smoothSolver:  Solving for Uy, Initial residual = 0.00755296, Final residual = 0.000528405, No Iterations 5
GAMG:  Solving for p, Initial residual = 0.00242819, Final residual = 0.000185908, No Iterations 2
time step continuity errors : sum local = 5.85667e-07, global = -9.82656e-09, cumulative = 2.86116e-06
smoothSolver:  Solving for epsilon, Initial residual = 8.85663e-05, Final residual = 9.84345e-06, No Iterations 3
smoothSolver:  Solving for k, Initial residual = 0.00109231, Final residual = 0.000107494, No Iterations 3
ExecutionTime = 7.29 s  ClockTime = 8 s

Time = 0.0087

smoothSolver:  Solving for Ux, Initial residual = 0.000954914, Final residual = 8.42956e-05, No Iterations 5
smoothSolver:  Solving for Uy, Initial residual = 0.00723051, Final residual = 0.000512097, No Iterations 5
GAMG:  Solving for p, Initial residual = 0.00230603, Final residual = 0.000175601, No Iterations 2
time step continuity errors : sum local = 5.52664e-07, global = -7.81266e-09, cumulative = 2.85335e-06
smoothSolver:  Solving for epsilon, Initial residual = 8.60502e-05, Final residual = 9.76039e-06, No Iterations 3
smoothSolver:  Solving for k, Initial residual = 0.00105285, Final residual = 0.000104168, No Iterations 3
ExecutionTime = 7.4 s  ClockTime = 8 s

Time = 0.0088

smoothSolver:  Solving for Ux, Initial residual = 0.000918632, Final residual = 8.25448e-05, No Iterations 5
smoothSolver:  Solving for Uy, Initial residual = 0.00698844, Final residual = 0.000499714, No Iterations 5
GAMG:  Solving for p, Initial residual = 0.00219457, Final residual = 0.000168741, No Iterations 2
time step continuity errors : sum local = 5.30654e-07, global = -6.60225e-09, cumulative = 2.84675e-06
smoothSolver:  Solving for epsilon, Initial residual = 8.43606e-05, Final residual = 9.69039e-06, No Iterations 3
smoothSolver:  Solving for k, Initial residual = 0.00102295, Final residual = 6.59247e-05, No Iterations 4
ExecutionTime = 7.49 s  ClockTime = 8 s

Time = 0.0089

smoothSolver:  Solving for Ux, Initial residual = 0.000894897, Final residual = 8.10188e-05, No Iterations 5
smoothSolver:  Solving for Uy, Initial residual = 0.0067321, Final residual = 0.000490858, No Iterations 5
GAMG:  Solving for p, Initial residual = 0.00209287, Final residual = 0.000166181, No Iterations 2
time step continuity errors : sum local = 5.22123e-07, global = -5.8505e-09, cumulative = 2.8409e-06
smoothSolver:  Solving for epsilon, Initial residual = 8.44628e-05, Final residual = 9.87506e-06, No Iterations 3
smoothSolver:  Solving for k, Initial residual = 0.000982389, Final residual = 6.50874e-05, No Iterations 4
ExecutionTime = 7.58 s  ClockTime = 8 s

Time = 0.009

smoothSolver:  Solving for Ux, Initial residual = 0.000864881, Final residual = 7.97498e-05, No Iterations 5
smoothSolver:  Solving for Uy, Initial residual = 0.00658737, Final residual = 0.000485489, No Iterations 5
GAMG:  Solving for p, Initial residual = 0.00200183, Final residual = 0.000165934, No Iterations 2
time step continuity errors : sum local = 5.2089e-07, global = -6.05308e-09, cumulative = 2.83484e-06
smoothSolver:  Solving for epsilon, Initial residual = 8.51102e-05, Final residual = 6.05019e-06, No Iterations 4
smoothSolver:  Solving for k, Initial residual = 0.000962551, Final residual = 6.47216e-05, No Iterations 4
ExecutionTime = 7.66 s  ClockTime = 8 s

Time = 0.0091

smoothSolver:  Solving for Ux, Initial residual = 0.000853476, Final residual = 7.87638e-05, No Iterations 5
smoothSolver:  Solving for Uy, Initial residual = 0.00641468, Final residual = 0.000482597, No Iterations 5
GAMG:  Solving for p, Initial residual = 0.00191721, Final residual = 0.000167447, No Iterations 2
time step continuity errors : sum local = 5.25105e-07, global = -6.62059e-09, cumulative = 2.82822e-06
smoothSolver:  Solving for epsilon, Initial residual = 8.28781e-05, Final residual = 9.88423e-06, No Iterations 3
smoothSolver:  Solving for k, Initial residual = 0.000938111, Final residual = 6.40563e-05, No Iterations 4
ExecutionTime = 7.74 s  ClockTime = 8 s

Time = 0.0092

smoothSolver:  Solving for Ux, Initial residual = 0.000833084, Final residual = 7.80168e-05, No Iterations 5
smoothSolver:  Solving for Uy, Initial residual = 0.00637126, Final residual = 0.000481519, No Iterations 5
GAMG:  Solving for p, Initial residual = 0.00185689, Final residual = 0.000169817, No Iterations 2
time step continuity errors : sum local = 5.31973e-07, global = -8.08315e-09, cumulative = 2.82014e-06
smoothSolver:  Solving for epsilon, Initial residual = 8.21621e-05, Final residual = 9.98451e-06, No Iterations 3
bounding epsilon, min: -0.141862 max: 2.98689e+06 average: 3471.59
smoothSolver:  Solving for k, Initial residual = 0.000932516, Final residual = 6.40788e-05, No Iterations 4
ExecutionTime = 7.83 s  ClockTime = 8 s

Time = 0.0093

smoothSolver:  Solving for Ux, Initial residual = 0.000826622, Final residual = 7.74091e-05, No Iterations 5
smoothSolver:  Solving for Uy, Initial residual = 0.00629868, Final residual = 0.000480061, No Iterations 5
GAMG:  Solving for p, Initial residual = 0.00181191, Final residual = 0.0001737, No Iterations 2
time step continuity errors : sum local = 5.43474e-07, global = -9.79622e-09, cumulative = 2.81034e-06
smoothSolver:  Solving for epsilon, Initial residual = 8.32317e-05, Final residual = 6.08126e-06, No Iterations 4
bounding epsilon, min: -1.37979 max: 3.00295e+06 average: 3497.45
smoothSolver:  Solving for k, Initial residual = 0.000913313, Final residual = 6.36328e-05, No Iterations 4
ExecutionTime = 7.92 s  ClockTime = 8 s

Time = 0.0094

smoothSolver:  Solving for Ux, Initial residual = 0.000826324, Final residual = 7.6865e-05, No Iterations 5
smoothSolver:  Solving for Uy, Initial residual = 0.00631242, Final residual = 0.000477528, No Iterations 5
GAMG:  Solving for p, Initial residual = 0.00176478, Final residual = 0.000176471, No Iterations 2
time step continuity errors : sum local = 5.51447e-07, global = -1.15353e-08, cumulative = 2.79881e-06
smoothSolver:  Solving for epsilon, Initial residual = 8.21269e-05, Final residual = 9.85623e-06, No Iterations 3
bounding epsilon, min: -1.73831 max: 3.01876e+06 average: 3521.24
smoothSolver:  Solving for k, Initial residual = 0.000912927, Final residual = 6.30446e-05, No Iterations 4
ExecutionTime = 8 s  ClockTime = 8 s

Time = 0.0095

smoothSolver:  Solving for Ux, Initial residual = 0.000827726, Final residual = 7.63677e-05, No Iterations 5
smoothSolver:  Solving for Uy, Initial residual = 0.00627718, Final residual = 0.000474573, No Iterations 5
GAMG:  Solving for p, Initial residual = 0.00174049, Final residual = 9.75561e-05, No Iterations 3
time step continuity errors : sum local = 3.04432e-07, global = -2.00757e-09, cumulative = 2.7968e-06
smoothSolver:  Solving for epsilon, Initial residual = 8.19941e-05, Final residual = 9.95753e-06, No Iterations 3
bounding epsilon, min: -1.58185 max: 3.03373e+06 average: 3544.52
smoothSolver:  Solving for k, Initial residual = 0.000893161, Final residual = 6.26603e-05, No Iterations 4
ExecutionTime = 8.08 s  ClockTime = 8 s

Time = 0.0096

smoothSolver:  Solving for Ux, Initial residual = 0.000843102, Final residual = 7.63179e-05, No Iterations 5
smoothSolver:  Solving for Uy, Initial residual = 0.00662517, Final residual = 0.0004808, No Iterations 5
GAMG:  Solving for p, Initial residual = 0.00172231, Final residual = 0.00013852, No Iterations 2
time step continuity errors : sum local = 4.3134e-07, global = -1.2639e-08, cumulative = 2.78416e-06
smoothSolver:  Solving for epsilon, Initial residual = 8.22278e-05, Final residual = 6.05811e-06, No Iterations 4
bounding epsilon, min: -1.49395 max: 3.04796e+06 average: 3568.26
smoothSolver:  Solving for k, Initial residual = 0.00089729, Final residual = 6.21468e-05, No Iterations 4
ExecutionTime = 8.17 s  ClockTime = 9 s

Time = 0.0097

smoothSolver:  Solving for Ux, Initial residual = 0.000819497, Final residual = 7.53314e-05, No Iterations 5
smoothSolver:  Solving for Uy, Initial residual = 0.00616399, Final residual = 0.00046807, No Iterations 5
GAMG:  Solving for p, Initial residual = 0.00169737, Final residual = 9.80944e-05, No Iterations 3
time step continuity errors : sum local = 3.05225e-07, global = -2.12444e-09, cumulative = 2.78204e-06
smoothSolver:  Solving for epsilon, Initial residual = 8.09009e-05, Final residual = 9.77607e-06, No Iterations 3
bounding epsilon, min: -1.6535 max: 3.06169e+06 average: 3590.19
smoothSolver:  Solving for k, Initial residual = 0.000869246, Final residual = 6.14649e-05, No Iterations 4
ExecutionTime = 8.25 s  ClockTime = 9 s

Time = 0.0098

smoothSolver:  Solving for Ux, Initial residual = 0.00084196, Final residual = 7.51647e-05, No Iterations 5
smoothSolver:  Solving for Uy, Initial residual = 0.00658296, Final residual = 0.000468209, No Iterations 5
GAMG:  Solving for p, Initial residual = 0.00169456, Final residual = 0.00014498, No Iterations 2
time step continuity errors : sum local = 4.50076e-07, global = -1.34873e-08, cumulative = 2.76855e-06
smoothSolver:  Solving for epsilon, Initial residual = 8.11556e-05, Final residual = 9.85492e-06, No Iterations 3
bounding epsilon, min: -1.24746 max: 3.07523e+06 average: 3611.4
smoothSolver:  Solving for k, Initial residual = 0.000873388, Final residual = 6.12552e-05, No Iterations 4
ExecutionTime = 8.34 s  ClockTime = 9 s

Time = 0.0099

smoothSolver:  Solving for Ux, Initial residual = 0.000820215, Final residual = 7.42511e-05, No Iterations 5
smoothSolver:  Solving for Uy, Initial residual = 0.00616014, Final residual = 0.000459144, No Iterations 5
GAMG:  Solving for p, Initial residual = 0.00168106, Final residual = 9.69769e-05, No Iterations 3
time step continuity errors : sum local = 3.00755e-07, global = -1.2539e-09, cumulative = 2.7673e-06
smoothSolver:  Solving for epsilon, Initial residual = 8.1062e-05, Final residual = 9.89723e-06, No Iterations 3
bounding epsilon, min: -1.50257 max: 3.08807e+06 average: 3632.24
smoothSolver:  Solving for k, Initial residual = 0.000845611, Final residual = 6.06963e-05, No Iterations 4
ExecutionTime = 8.43 s  ClockTime = 9 s

Time = 0.01

smoothSolver:  Solving for Ux, Initial residual = 0.000837723, Final residual = 7.41066e-05, No Iterations 5
smoothSolver:  Solving for Uy, Initial residual = 0.00654932, Final residual = 0.000459687, No Iterations 5
GAMG:  Solving for p, Initial residual = 0.00168603, Final residual = 0.000143673, No Iterations 2
time step continuity errors : sum local = 4.44359e-07, global = -1.32713e-08, cumulative = 2.75403e-06
smoothSolver:  Solving for epsilon, Initial residual = 8.10242e-05, Final residual = 9.90017e-06, No Iterations 3
bounding epsilon, min: -1.16834 max: 3.10113e+06 average: 3652.61
smoothSolver:  Solving for k, Initial residual = 0.000849156, Final residual = 6.01692e-05, No Iterations 4
ExecutionTime = 8.53 s  ClockTime = 9 s

Time = 0.0101

smoothSolver:  Solving for Ux, Initial residual = 0.000812306, Final residual = 7.30892e-05, No Iterations 5
smoothSolver:  Solving for Uy, Initial residual = 0.00608148, Final residual = 0.000450435, No Iterations 5
GAMG:  Solving for p, Initial residual = 0.0016748, Final residual = 9.56765e-05, No Iterations 3
time step continuity errors : sum local = 2.95635e-07, global = -9.04213e-10, cumulative = 2.75312e-06
smoothSolver:  Solving for epsilon, Initial residual = 8.0823e-05, Final residual = 9.91108e-06, No Iterations 3
bounding epsilon, min: -1.60899 max: 3.11384e+06 average: 3672.72
smoothSolver:  Solving for k, Initial residual = 0.000823886, Final residual = 5.94766e-05, No Iterations 4
ExecutionTime = 8.63 s  ClockTime = 9 s

Time = 0.0102

smoothSolver:  Solving for Ux, Initial residual = 0.00082417, Final residual = 7.28494e-05, No Iterations 5
smoothSolver:  Solving for Uy, Initial residual = 0.00642958, Final residual = 0.000450187, No Iterations 5
GAMG:  Solving for p, Initial residual = 0.00168226, Final residual = 0.000140607, No Iterations 2
time step continuity errors : sum local = 4.33255e-07, global = -1.33042e-08, cumulative = 2.73982e-06
smoothSolver:  Solving for epsilon, Initial residual = 8.04011e-05, Final residual = 9.86387e-06, No Iterations 3
bounding epsilon, min: -1.08232 max: 3.12671e+06 average: 3692.18
smoothSolver:  Solving for k, Initial residual = 0.000828343, Final residual = 5.9064e-05, No Iterations 4
ExecutionTime = 8.72 s  ClockTime = 9 s

Time = 0.0103

smoothSolver:  Solving for Ux, Initial residual = 0.000796719, Final residual = 7.17972e-05, No Iterations 5
smoothSolver:  Solving for Uy, Initial residual = 0.00597098, Final residual = 0.000441728, No Iterations 5
GAMG:  Solving for p, Initial residual = 0.0016704, Final residual = 9.34569e-05, No Iterations 3
time step continuity errors : sum local = 2.87705e-07, global = -7.97188e-10, cumulative = 2.73902e-06
smoothSolver:  Solving for epsilon, Initial residual = 8.0224e-05, Final residual = 9.86607e-06, No Iterations 3
bounding epsilon, min: -1.33236 max: 3.13918e+06 average: 3711.35
smoothSolver:  Solving for k, Initial residual = 0.000800525, Final residual = 5.81751e-05, No Iterations 4
ExecutionTime = 8.83 s  ClockTime = 9 s

Time = 0.0104

smoothSolver:  Solving for Ux, Initial residual = 0.000803752, Final residual = 7.15691e-05, No Iterations 5
smoothSolver:  Solving for Uy, Initial residual = 0.00626791, Final residual = 0.000440261, No Iterations 5
GAMG:  Solving for p, Initial residual = 0.00167408, Final residual = 0.000135519, No Iterations 2
time step continuity errors : sum local = 4.15956e-07, global = -1.3103e-08, cumulative = 2.72592e-06
smoothSolver:  Solving for epsilon, Initial residual = 7.96556e-05, Final residual = 9.80379e-06, No Iterations 3
bounding epsilon, min: -0.857891 max: 3.15216e+06 average: 3729.9
smoothSolver:  Solving for k, Initial residual = 0.000799656, Final residual = 5.74368e-05, No Iterations 4
ExecutionTime = 8.92 s  ClockTime = 9 s

Time = 0.0105

smoothSolver:  Solving for Ux, Initial residual = 0.000775775, Final residual = 7.0513e-05, No Iterations 5
smoothSolver:  Solving for Uy, Initial residual = 0.00581181, Final residual = 0.000432673, No Iterations 5
GAMG:  Solving for p, Initial residual = 0.00165829, Final residual = 9.05573e-05, No Iterations 3
time step continuity errors : sum local = 2.77691e-07, global = -5.87967e-10, cumulative = 2.72533e-06
smoothSolver:  Solving for epsilon, Initial residual = 7.95116e-05, Final residual = 9.79885e-06, No Iterations 3
bounding epsilon, min: -0.999925 max: 3.16492e+06 average: 3748.31
smoothSolver:  Solving for k, Initial residual = 0.00076988, Final residual = 5.65438e-05, No Iterations 4
ExecutionTime = 9.02 s  ClockTime = 9 s

Time = 0.0106

smoothSolver:  Solving for Ux, Initial residual = 0.000778311, Final residual = 7.03166e-05, No Iterations 5
smoothSolver:  Solving for Uy, Initial residual = 0.00606016, Final residual = 0.000429686, No Iterations 5
GAMG:  Solving for p, Initial residual = 0.00165766, Final residual = 0.000128585, No Iterations 2
time step continuity errors : sum local = 3.931e-07, global = -1.27366e-08, cumulative = 2.71259e-06
smoothSolver:  Solving for epsilon, Initial residual = 7.89503e-05, Final residual = 9.7156e-06, No Iterations 3
bounding epsilon, min: -0.422926 max: 3.17841e+06 average: 3766.12
smoothSolver:  Solving for k, Initial residual = 0.000777904, Final residual = 5.57916e-05, No Iterations 4
ExecutionTime = 9.1 s  ClockTime = 9 s

Time = 0.0107

smoothSolver:  Solving for Ux, Initial residual = 0.000751036, Final residual = 6.92012e-05, No Iterations 5
smoothSolver:  Solving for Uy, Initial residual = 0.00564288, Final residual = 0.000422864, No Iterations 5
GAMG:  Solving for p, Initial residual = 0.00163798, Final residual = 0.000163773, No Iterations 2
time step continuity errors : sum local = 5.00215e-07, global = -1.58212e-08, cumulative = 2.69677e-06
smoothSolver:  Solving for epsilon, Initial residual = 7.84897e-05, Final residual = 9.68466e-06, No Iterations 3
bounding epsilon, min: -0.724918 max: 3.19176e+06 average: 3783.86
smoothSolver:  Solving for k, Initial residual = 0.000761687, Final residual = 5.50309e-05, No Iterations 4
ExecutionTime = 9.18 s  ClockTime = 10 s

Time = 0.0108

smoothSolver:  Solving for Ux, Initial residual = 0.000742355, Final residual = 6.86446e-05, No Iterations 5
smoothSolver:  Solving for Uy, Initial residual = 0.00560744, Final residual = 0.0004164, No Iterations 5
GAMG:  Solving for p, Initial residual = 0.00163443, Final residual = 8.52584e-05, No Iterations 3
time step continuity errors : sum local = 2.59914e-07, global = -1.13631e-10, cumulative = 2.69666e-06
smoothSolver:  Solving for epsilon, Initial residual = 7.84207e-05, Final residual = 9.62059e-06, No Iterations 3
bounding epsilon, min: -0.254034 max: 3.20574e+06 average: 3801.04
smoothSolver:  Solving for k, Initial residual = 0.000758694, Final residual = 5.42394e-05, No Iterations 4
ExecutionTime = 9.26 s  ClockTime = 10 s

Time = 0.0109

smoothSolver:  Solving for Ux, Initial residual = 0.000742982, Final residual = 6.85995e-05, No Iterations 5
smoothSolver:  Solving for Uy, Initial residual = 0.00582367, Final residual = 0.000412468, No Iterations 5
GAMG:  Solving for p, Initial residual = 0.00162631, Final residual = 0.000113512, No Iterations 2
time step continuity errors : sum local = 3.44824e-07, global = -1.09613e-08, cumulative = 2.6857e-06
smoothSolver:  Solving for epsilon, Initial residual = 7.80346e-05, Final residual = 9.5958e-06, No Iterations 3
bounding epsilon, min: -0.468082 max: 3.22066e+06 average: 3818.33
smoothSolver:  Solving for k, Initial residual = 0.000744767, Final residual = 5.34686e-05, No Iterations 4
ExecutionTime = 9.34 s  ClockTime = 10 s

Time = 0.011

smoothSolver:  Solving for Ux, Initial residual = 0.000712758, Final residual = 6.73531e-05, No Iterations 5
smoothSolver:  Solving for Uy, Initial residual = 0.00534217, Final residual = 0.000405384, No Iterations 5
GAMG:  Solving for p, Initial residual = 0.00159289, Final residual = 0.000148571, No Iterations 2
time step continuity errors : sum local = 4.50992e-07, global = -1.36356e-08, cumulative = 2.67206e-06
smoothSolver:  Solving for epsilon, Initial residual = 7.89885e-05, Final residual = 9.50063e-06, No Iterations 3
smoothSolver:  Solving for k, Initial residual = 0.000742476, Final residual = 5.29729e-05, No Iterations 4
ExecutionTime = 9.42 s  ClockTime = 10 s

Time = 0.0111

smoothSolver:  Solving for Ux, Initial residual = 0.000707707, Final residual = 6.6784e-05, No Iterations 5
smoothSolver:  Solving for Uy, Initial residual = 0.00532548, Final residual = 0.000399351, No Iterations 5
GAMG:  Solving for p, Initial residual = 0.00158123, Final residual = 0.000152192, No Iterations 2
time step continuity errors : sum local = 4.61197e-07, global = -1.41703e-08, cumulative = 2.65789e-06
smoothSolver:  Solving for epsilon, Initial residual = 7.65308e-05, Final residual = 9.51745e-06, No Iterations 3
bounding epsilon, min: -1.3654 max: 3.25106e+06 average: 3851.9
smoothSolver:  Solving for k, Initial residual = 0.000729793, Final residual = 5.19927e-05, No Iterations 4
bounding k, min: -0.00968258 max: 27.1136 average: 2.05797
ExecutionTime = 9.5 s  ClockTime = 10 s

Time = 0.0112

[...]
ExecutionTime = 18.51 s  ClockTime = 19 s

Time = 0.0219

smoothSolver:  Solving for Ux, Initial residual = 0.000197116, Final residual = 1.67813e-05, No Iterations 5
smoothSolver:  Solving for Uy, Initial residual = 0.00179492, Final residual = 0.000143773, No Iterations 5
GAMG:  Solving for p, Initial residual = 0.000436907, Final residual = 2.38906e-05, No Iterations 3
time step continuity errors : sum local = 7.15299e-08, global = 7.8795e-10, cumulative = 2.44832e-06
smoothSolver:  Solving for epsilon, Initial residual = 2.69874e-05, Final residual = 5.97856e-06, No Iterations 2
bounding epsilon, min: -1.75554 max: 4.41966e+06 average: 4730.5
smoothSolver:  Solving for k, Initial residual = 0.000231412, Final residual = 1.54502e-05, No Iterations 4
ExecutionTime = 18.59 s  ClockTime = 19 s

Time = 0.022

smoothSolver:  Solving for Ux, Initial residual = 0.000196793, Final residual = 1.64363e-05, No Iterations 5
smoothSolver:  Solving for Uy, Initial residual = 0.00185242, Final residual = 0.00014094, No Iterations 5
GAMG:  Solving for p, Initial residual = 0.000432876, Final residual = 3.45702e-05, No Iterations 2
time step continuity errors : sum local = 1.03626e-07, global = 2.1147e-09, cumulative = 2.45043e-06
smoothSolver:  Solving for epsilon, Initial residual = 2.75091e-05, Final residual = 6.02273e-06, No Iterations 2
bounding epsilon, min: -1.74662 max: 4.41197e+06 average: 4727.01
smoothSolver:  Solving for k, Initial residual = 0.000228753, Final residual = 1.53963e-05, No Iterations 4
ExecutionTime = 18.67 s  ClockTime = 19 s

Time = 0.0221

smoothSolver:  Solving for Ux, Initial residual = 0.000189604, Final residual = 1.59645e-05, No Iterations 5
smoothSolver:  Solving for Uy, Initial residual = 0.00174164, Final residual = 0.00013893, No Iterations 5
GAMG:  Solving for p, Initial residual = 0.000424803, Final residual = 2.30879e-05, No Iterations 3
time step continuity errors : sum local = 6.92221e-08, global = 7.82671e-10, cumulative = 2.45121e-06
smoothSolver:  Solving for epsilon, Initial residual = 2.74161e-05, Final residual = 6.08082e-06, No Iterations 2
bounding epsilon, min: -1.76302 max: 4.40414e+06 average: 4723.42
smoothSolver:  Solving for k, Initial residual = 0.000230381, Final residual = 1.52193e-05, No Iterations 4
ExecutionTime = 18.75 s  ClockTime = 19 s

Time = 0.0222

smoothSolver:  Solving for Ux, Initial residual = 0.000189245, Final residual = 1.56288e-05, No Iterations 5
smoothSolver:  Solving for Uy, Initial residual = 0.00179359, Final residual = 0.000135945, No Iterations 5
GAMG:  Solving for p, Initial residual = 0.000420254, Final residual = 3.31562e-05, No Iterations 2
time step continuity errors : sum local = 9.95221e-08, global = 2.0751e-09, cumulative = 2.45329e-06
smoothSolver:  Solving for epsilon, Initial residual = 2.79017e-05, Final residual = 6.12813e-06, No Iterations 2
bounding epsilon, min: -1.75688 max: 4.39605e+06 average: 4719.63
smoothSolver:  Solving for k, Initial residual = 0.000227403, Final residual = 1.52089e-05, No Iterations 4
ExecutionTime = 18.84 s  ClockTime = 19 s

Time = 0.0223

smoothSolver:  Solving for Ux, Initial residual = 0.000181971, Final residual = 1.51639e-05, No Iterations 5
smoothSolver:  Solving for Uy, Initial residual = 0.00168324, Final residual = 0.000133883, No Iterations 5
GAMG:  Solving for p, Initial residual = 0.000412198, Final residual = 4.07539e-05, No Iterations 2
time step continuity errors : sum local = 1.22355e-07, global = 4.36028e-09, cumulative = 2.45765e-06
smoothSolver:  Solving for epsilon, Initial residual = 2.7791e-05, Final residual = 6.17866e-06, No Iterations 2
bounding epsilon, min: -1.77029 max: 4.38786e+06 average: 4715.77
smoothSolver:  Solving for k, Initial residual = 0.000228027, Final residual = 1.50232e-05, No Iterations 4
ExecutionTime = 18.92 s  ClockTime = 20 s

Time = 0.0224

smoothSolver:  Solving for Ux, Initial residual = 0.000178625, Final residual = 1.47614e-05, No Iterations 5
smoothSolver:  Solving for Uy, Initial residual = 0.00167863, Final residual = 0.00013094, No Iterations 5
GAMG:  Solving for p, Initial residual = 0.000407365, Final residual = 2.17947e-05, No Iterations 3
time step continuity errors : sum local = 6.54769e-08, global = 8.49041e-10, cumulative = 2.4585e-06
smoothSolver:  Solving for epsilon, Initial residual = 2.82382e-05, Final residual = 6.22777e-06, No Iterations 2
bounding epsilon, min: -1.76745 max: 4.37944e+06 average: 4711.74
smoothSolver:  Solving for k, Initial residual = 0.000225308, Final residual = 1.50236e-05, No Iterations 4
ExecutionTime = 19.01 s  ClockTime = 20 s

Time = 0.0225

smoothSolver:  Solving for Ux, Initial residual = 0.000179193, Final residual = 1.45273e-05, No Iterations 5
smoothSolver:  Solving for Uy, Initial residual = 0.00170997, Final residual = 0.000127867, No Iterations 5
GAMG:  Solving for p, Initial residual = 0.000402683, Final residual = 3.02613e-05, No Iterations 2
time step continuity errors : sum local = 9.10292e-08, global = 1.46037e-09, cumulative = 2.45996e-06
smoothSolver:  Solving for epsilon, Initial residual = 2.81184e-05, Final residual = 6.26446e-06, No Iterations 2
bounding epsilon, min: -1.77841 max: 4.3709e+06 average: 4707.63
smoothSolver:  Solving for k, Initial residual = 0.000226535, Final residual = 1.4808e-05, No Iterations 4
ExecutionTime = 19.08 s  ClockTime = 20 s

Time = 0.0226

smoothSolver:  Solving for Ux, Initial residual = 0.000170483, Final residual = 1.40578e-05, No Iterations 5
smoothSolver:  Solving for Uy, Initial residual = 0.00160413, Final residual = 0.000125688, No Iterations 5
GAMG:  Solving for p, Initial residual = 0.000392482, Final residual = 3.75702e-05, No Iterations 2
time step continuity errors : sum local = 1.1303e-07, global = 3.82093e-09, cumulative = 2.46378e-06
smoothSolver:  Solving for epsilon, Initial residual = 2.84452e-05, Final residual = 6.28361e-06, No Iterations 2
bounding epsilon, min: -1.77258 max: 4.36243e+06 average: 4703.42
smoothSolver:  Solving for k, Initial residual = 0.000222973, Final residual = 1.47625e-05, No Iterations 4
ExecutionTime = 19.15 s  ClockTime = 20 s

Time = 0.0227

smoothSolver:  Solving for Ux, Initial residual = 0.000167911, Final residual = 1.37106e-05, No Iterations 5
smoothSolver:  Solving for Uy, Initial residual = 0.00157, Final residual = 0.000123005, No Iterations 5
GAMG:  Solving for p, Initial residual = 0.000388017, Final residual = 3.8208e-05, No Iterations 2
time step continuity errors : sum local = 1.15011e-07, global = 4.19069e-09, cumulative = 2.46797e-06
smoothSolver:  Solving for epsilon, Initial residual = 2.83857e-05, Final residual = 6.32167e-06, No Iterations 2
bounding epsilon, min: -1.78128 max: 4.35371e+06 average: 4699.14
smoothSolver:  Solving for k, Initial residual = 0.000223027, Final residual = 1.4573e-05, No Iterations 4
ExecutionTime = 19.24 s  ClockTime = 20 s

Time = 0.0228

smoothSolver:  Solving for Ux, Initial residual = 0.000164825, Final residual = 1.34101e-05, No Iterations 5
smoothSolver:  Solving for Uy, Initial residual = 0.00156578, Final residual = 0.000119856, No Iterations 5
GAMG:  Solving for p, Initial residual = 0.00038196, Final residual = 3.64853e-05, No Iterations 2
time step continuity errors : sum local = 1.09907e-07, global = 3.80823e-09, cumulative = 2.47178e-06
smoothSolver:  Solving for epsilon, Initial residual = 2.8594e-05, Final residual = 6.34192e-06, No Iterations 2
bounding epsilon, min: -1.77706 max: 4.3449e+06 average: 4694.76
smoothSolver:  Solving for k, Initial residual = 0.000220045, Final residual = 1.45049e-05, No Iterations 4
ExecutionTime = 19.33 s  ClockTime = 20 s

Time = 0.0229

smoothSolver:  Solving for Ux, Initial residual = 0.00016153, Final residual = 1.31342e-05, No Iterations 5
smoothSolver:  Solving for Uy, Initial residual = 0.00151929, Final residual = 0.000117003, No Iterations 5
GAMG:  Solving for p, Initial residual = 0.000375774, Final residual = 3.50094e-05, No Iterations 2
time step continuity errors : sum local = 1.05534e-07, global = 3.74897e-09, cumulative = 2.47553e-06
smoothSolver:  Solving for epsilon, Initial residual = 2.85371e-05, Final residual = 6.3607e-06, No Iterations 2
bounding epsilon, min: -1.78297 max: 4.33614e+06 average: 4690.35
smoothSolver:  Solving for k, Initial residual = 0.00022133, Final residual = 2.19617e-05, No Iterations 3
ExecutionTime = 19.41 s  ClockTime = 20 s

Time = 0.023

smoothSolver:  Solving for Ux, Initial residual = 0.000157556, Final residual = 1.28565e-05, No Iterations 5
smoothSolver:  Solving for Uy, Initial residual = 0.00148683, Final residual = 0.000114079, No Iterations 5
GAMG:  Solving for p, Initial residual = 0.000367423, Final residual = 3.37735e-05, No Iterations 2
time step continuity errors : sum local = 1.0187e-07, global = 3.58285e-09, cumulative = 2.47911e-06
smoothSolver:  Solving for epsilon, Initial residual = 2.82171e-05, Final residual = 6.26092e-06, No Iterations 2
bounding epsilon, min: -1.77514 max: 4.32789e+06 average: 4686.05
smoothSolver:  Solving for k, Initial residual = 0.000217643, Final residual = 1.4237e-05, No Iterations 4
ExecutionTime = 19.5 s  ClockTime = 20 s

Time = 0.0231

smoothSolver:  Solving for Ux, Initial residual = 0.000154206, Final residual = 1.25995e-05, No Iterations 5
smoothSolver:  Solving for Uy, Initial residual = 0.00143916, Final residual = 0.000111441, No Iterations 5
GAMG:  Solving for p, Initial residual = 0.000361378, Final residual = 3.28332e-05, No Iterations 2
time step continuity errors : sum local = 9.9093e-08, global = 3.57846e-09, cumulative = 2.48269e-06
smoothSolver:  Solving for epsilon, Initial residual = 2.81207e-05, Final residual = 6.27111e-06, No Iterations 2
bounding epsilon, min: -1.77879 max: 4.31982e+06 average: 4681.8
smoothSolver:  Solving for k, Initial residual = 0.000218069, Final residual = 2.15145e-05, No Iterations 3
ExecutionTime = 19.59 s  ClockTime = 20 s

Time = 0.0232

smoothSolver:  Solving for Ux, Initial residual = 0.000150611, Final residual = 1.23509e-05, No Iterations 5
smoothSolver:  Solving for Uy, Initial residual = 0.00141415, Final residual = 0.000108565, No Iterations 5
GAMG:  Solving for p, Initial residual = 0.000353597, Final residual = 3.17973e-05, No Iterations 2
time step continuity errors : sum local = 9.602e-08, global = 3.43239e-09, cumulative = 2.48612e-06
smoothSolver:  Solving for epsilon, Initial residual = 2.78881e-05, Final residual = 6.18069e-06, No Iterations 2
bounding epsilon, min: -1.77179 max: 4.31177e+06 average: 4677.55
smoothSolver:  Solving for k, Initial residual = 0.000214001, Final residual = 1.39303e-05, No Iterations 4
ExecutionTime = 19.67 s  ClockTime = 20 s

Time = 0.0233

smoothSolver:  Solving for Ux, Initial residual = 0.000147508, Final residual = 1.21347e-05, No Iterations 5
smoothSolver:  Solving for Uy, Initial residual = 0.00136883, Final residual = 0.000105897, No Iterations 5
GAMG:  Solving for p, Initial residual = 0.000347235, Final residual = 3.08646e-05, No Iterations 2
time step continuity errors : sum local = 9.32557e-08, global = 3.41992e-09, cumulative = 2.48954e-06
smoothSolver:  Solving for epsilon, Initial residual = 2.79554e-05, Final residual = 6.20022e-06, No Iterations 2
bounding epsilon, min: -1.773 max: 4.30358e+06 average: 4673.25
smoothSolver:  Solving for k, Initial residual = 0.000214887, Final residual = 2.10636e-05, No Iterations 3
ExecutionTime = 19.74 s  ClockTime = 20 s

Time = 0.0234

smoothSolver:  Solving for Ux, Initial residual = 0.000144116, Final residual = 1.19197e-05, No Iterations 5
smoothSolver:  Solving for Uy, Initial residual = 0.00134263, Final residual = 0.000102998, No Iterations 5
GAMG:  Solving for p, Initial residual = 0.000339371, Final residual = 2.97747e-05, No Iterations 2
time step continuity errors : sum local = 9.00108e-08, global = 3.24646e-09, cumulative = 2.49279e-06
smoothSolver:  Solving for epsilon, Initial residual = 2.76741e-05, Final residual = 6.11666e-06, No Iterations 2
bounding epsilon, min: -1.76399 max: 4.29552e+06 average: 4668.97
smoothSolver:  Solving for k, Initial residual = 0.000210295, Final residual = 2.09657e-05, No Iterations 3
ExecutionTime = 19.81 s  ClockTime = 20 s

Time = 0.0235

smoothSolver:  Solving for Ux, Initial residual = 0.000140997, Final residual = 1.17338e-05, No Iterations 5
smoothSolver:  Solving for Uy, Initial residual = 0.00129485, Final residual = 0.000100311, No Iterations 5
GAMG:  Solving for p, Initial residual = 0.000332358, Final residual = 2.86875e-05, No Iterations 2
time step continuity errors : sum local = 8.67707e-08, global = 3.20937e-09, cumulative = 2.496e-06
smoothSolver:  Solving for epsilon, Initial residual = 2.7321e-05, Final residual = 6.02815e-06, No Iterations 2
bounding epsilon, min: -1.76358 max: 4.28793e+06 average: 4664.86
smoothSolver:  Solving for k, Initial residual = 0.000210691, Final residual = 2.06537e-05, No Iterations 3
ExecutionTime = 19.9 s  ClockTime = 21 s

Time = 0.0236

smoothSolver:  Solving for Ux, Initial residual = 0.000137869, Final residual = 1.15444e-05, No Iterations 5
smoothSolver:  Solving for Uy, Initial residual = 0.00126789, Final residual = 9.74627e-05, No Iterations 5
GAMG:  Solving for p, Initial residual = 0.000324511, Final residual = 2.7614e-05, No Iterations 2
time step continuity errors : sum local = 8.35656e-08, global = 3.03045e-09, cumulative = 2.49903e-06
smoothSolver:  Solving for epsilon, Initial residual = 2.69685e-05, Final residual = 5.93562e-06, No Iterations 2
bounding epsilon, min: -1.75575 max: 4.28066e+06 average: 4660.86
smoothSolver:  Solving for k, Initial residual = 0.000206309, Final residual = 2.04915e-05, No Iterations 3
ExecutionTime = 19.98 s  ClockTime = 21 s

Time = 0.0237

smoothSolver:  Solving for Ux, Initial residual = 0.000134814, Final residual = 1.13808e-05, No Iterations 5
smoothSolver:  Solving for Uy, Initial residual = 0.00122191, Final residual = 9.47916e-05, No Iterations 5
GAMG:  Solving for p, Initial residual = 0.00031752, Final residual = 2.65453e-05, No Iterations 2
time step continuity errors : sum local = 8.03721e-08, global = 2.97584e-09, cumulative = 2.502e-06
smoothSolver:  Solving for epsilon, Initial residual = 2.6836e-05, Final residual = 5.86639e-06, No Iterations 2
bounding epsilon, min: -1.7536 max: 4.27336e+06 average: 4656.9
smoothSolver:  Solving for k, Initial residual = 0.000207739, Final residual = 2.01869e-05, No Iterations 3
ExecutionTime = 20.05 s  ClockTime = 21 s

Time = 0.0238

smoothSolver:  Solving for Ux, Initial residual = 0.000132012, Final residual = 1.12103e-05, No Iterations 5
smoothSolver:  Solving for Uy, Initial residual = 0.00119493, Final residual = 9.1973e-05, No Iterations 5
GAMG:  Solving for p, Initial residual = 0.000309441, Final residual = 2.55313e-05, No Iterations 2
time step continuity errors : sum local = 7.7338e-08, global = 2.79527e-09, cumulative = 2.5048e-06
smoothSolver:  Solving for epsilon, Initial residual = 2.66579e-05, Final residual = 5.80694e-06, No Iterations 2
bounding epsilon, min: -1.74452 max: 4.26601e+06 average: 4652.91
smoothSolver:  Solving for k, Initial residual = 0.000202296, Final residual = 1.99955e-05, No Iterations 3
ExecutionTime = 20.13 s  ClockTime = 21 s

Time = 0.0239

smoothSolver:  Solving for Ux, Initial residual = 0.00012892, Final residual = 1.10717e-05, No Iterations 5
smoothSolver:  Solving for Uy, Initial residual = 0.00115039, Final residual = 8.93384e-05, No Iterations 5
GAMG:  Solving for p, Initial residual = 0.000302551, Final residual = 2.44866e-05, No Iterations 2
time step continuity errors : sum local = 7.42087e-08, global = 2.73691e-09, cumulative = 2.50754e-06
smoothSolver:  Solving for epsilon, Initial residual = 2.65285e-05, Final residual = 5.73953e-06, No Iterations 2
bounding epsilon, min: -1.74083 max: 4.25875e+06 average: 4648.98
smoothSolver:  Solving for k, Initial residual = 0.000203, Final residual = 1.97197e-05, No Iterations 3
ExecutionTime = 20.2 s  ClockTime = 21 s

Time = 0.024

smoothSolver:  Solving for Ux, Initial residual = 0.000126427, Final residual = 1.09225e-05, No Iterations 5
smoothSolver:  Solving for Uy, Initial residual = 0.00112388, Final residual = 8.6547e-05, No Iterations 5
GAMG:  Solving for p, Initial residual = 0.000294837, Final residual = 2.3542e-05, No Iterations 2
time step continuity errors : sum local = 7.13771e-08, global = 2.58462e-09, cumulative = 2.51012e-06
smoothSolver:  Solving for epsilon, Initial residual = 2.62517e-05, Final residual = 5.67558e-06, No Iterations 2
bounding epsilon, min: -1.73112 max: 4.25155e+06 average: 4645.08
smoothSolver:  Solving for k, Initial residual = 0.000198194, Final residual = 1.95004e-05, No Iterations 3
ExecutionTime = 20.28 s  ClockTime = 21 s

Time = 0.0241

smoothSolver:  Solving for Ux, Initial residual = 0.000123432, Final residual = 1.08042e-05, No Iterations 5
smoothSolver:  Solving for Uy, Initial residual = 0.00108153, Final residual = 8.39636e-05, No Iterations 5
GAMG:  Solving for p, Initial residual = 0.000288247, Final residual = 2.25414e-05, No Iterations 2
time step continuity errors : sum local = 6.83744e-08, global = 2.52538e-09, cumulative = 2.51265e-06
smoothSolver:  Solving for epsilon, Initial residual = 2.61855e-05, Final residual = 5.61409e-06, No Iterations 2
bounding epsilon, min: -1.72651 max: 4.24439e+06 average: 4641.22
smoothSolver:  Solving for k, Initial residual = 0.000199447, Final residual = 1.92118e-05, No Iterations 3
ExecutionTime = 20.37 s  ClockTime = 21 s

Time = 0.0242

smoothSolver:  Solving for Ux, Initial residual = 0.000121259, Final residual = 1.06747e-05, No Iterations 5
smoothSolver:  Solving for Uy, Initial residual = 0.00105615, Final residual = 8.12456e-05, No Iterations 5
GAMG:  Solving for p, Initial residual = 0.00028046, Final residual = 2.16792e-05, No Iterations 2
time step continuity errors : sum local = 6.5786e-08, global = 2.39185e-09, cumulative = 2.51504e-06
smoothSolver:  Solving for epsilon, Initial residual = 2.58744e-05, Final residual = 5.55185e-06, No Iterations 2
bounding epsilon, min: -1.71629 max: 4.23728e+06 average: 4637.38
smoothSolver:  Solving for k, Initial residual = 0.000193725, Final residual = 1.89912e-05, No Iterations 3
ExecutionTime = 20.46 s  ClockTime = 21 s

Time = 0.0243

smoothSolver:  Solving for Ux, Initial residual = 0.000118311, Final residual = 1.05726e-05, No Iterations 5
smoothSolver:  Solving for Uy, Initial residual = 0.00101584, Final residual = 7.87513e-05, No Iterations 5
GAMG:  Solving for p, Initial residual = 0.000274119, Final residual = 2.07394e-05, No Iterations 2
time step continuity errors : sum local = 6.29607e-08, global = 2.36557e-09, cumulative = 2.5174e-06
smoothSolver:  Solving for epsilon, Initial residual = 2.58627e-05, Final residual = 9.86782e-06, No Iterations 1
bounding epsilon, min: -2.12908 max: 4.23022e+06 average: 4634.33
smoothSolver:  Solving for k, Initial residual = 0.000195165, Final residual = 1.88744e-05, No Iterations 3
ExecutionTime = 20.53 s  ClockTime = 21 s

Time = 0.0244

smoothSolver:  Solving for Ux, Initial residual = 0.000116758, Final residual = 1.04474e-05, No Iterations 5
smoothSolver:  Solving for Uy, Initial residual = 0.000993386, Final residual = 7.61525e-05, No Iterations 5
GAMG:  Solving for p, Initial residual = 0.00026836, Final residual = 2.02362e-05, No Iterations 2
time step continuity errors : sum local = 6.14554e-08, global = 2.24935e-09, cumulative = 2.51965e-06
smoothSolver:  Solving for epsilon, Initial residual = 2.73764e-05, Final residual = 5.88226e-06, No Iterations 2
bounding epsilon, min: -1.66673 max: 4.2231e+06 average: 4630.24
smoothSolver:  Solving for k, Initial residual = 0.000190748, Final residual = 1.87831e-05, No Iterations 3
ExecutionTime = 20.6 s  ClockTime = 21 s


SIMPLE solution converged in 0.0244 iterations

End

