/*---------------------------------------------------------------------------*\
  =========                 |
  \\      /  F ield         | OpenFOAM: The Open Source CFD Toolbox
   \\    /   O peration     | Website:  https://openfoam.org
    \\  /    A nd           | Version:  8
     \\/     M anipulation  |
\*---------------------------------------------------------------------------*/
Build  : 8-9b73cf21a682
Exec   : blockMesh
Date   : Oct 06 2020
Time   : 20:54:28
Host   : "bnes"
PID    : 32670
I/O    : uncollated
Case   : /media/sbkim/2266B8F966B8CEB3/git/openfoam_seo/of/org/yjn2/yjn2_rib_lower
nProcs : 1
sigFpe : Enabling floating point exception trapping (FOAM_SIGFPE).
fileModificationChecking : Monitoring run-time modified files using timeStampMaster (fileModificationSkew 10)
allowSystemOperations : Allowing user-supplied system call operations

// * * * * * * * * * * * * * * * * * * * * * * * * * * * * * * * * * * * * * //
Create time

Deleting polyMesh directory
    "/media/sbkim/2266B8F966B8CEB3/git/openfoam_seo/of/org/yjn2/yjn2_rib_lower/constant/polyMesh"
Creating block mesh from
    "system/blockMeshDict"
Creating block edges
No non-planar block faces defined
Creating topology blocks
Creating topology patches

Creating block mesh topology
--> FOAM Warning : 
    From function Foam::polyMesh::polyMesh(const Foam::IOobject&, Foam::pointField&&, const cellShapeList&, const faceListList&, const wordList&, const Foam::PtrList<Foam::dictionary>&, const Foam::word&, const Foam::word&, bool)
    in file meshes/polyMesh/polyMeshFromShapeMesh.C at line 873
    Found 2896 undefined faces in mesh; adding to default patch.

Check topology

	Basic statistics
		Number of internal faces : 30837
		Number of boundary faces : 35736
		Number of defined boundary faces : 35736
		Number of undefined boundary faces : 0
	Checking patch -> block consistency

Creating block offsets
Creating merge list ..

Creating polyMesh from blockMesh
Creating patches
Creating cells
Creating points with scale 1
    Block 0 cell size :
        i : 1
        j : 0.00039174 0.00039174 0.000415924 0.000415924 
        k : 3.28024e-05 3.28024e-05 2.33452e-05 2.33452e-05 
    Block 1 cell size :
        i : 1
        j : 3.28024e-05 3.28024e-05 2.9e-05 2.9e-05 
        k : 0.000567387 0.000567387 0.00057234 0.00057234 
    Block 2 cell size :
        i : 1
        j : 2.9e-05 2.9e-05 2.78029e-05 2.78029e-05 
        k : 0.000568241 0.000568241 0.000572477 0.000572477 
    Block 3 cell size :
        i : 1
        j : 2.78029e-05 2.78029e-05 2.66271e-05 2.66271e-05 
        k : 0.000570359 0.000570359 0.00057234 0.00057234 
    Block 4 cell size :
        i : 1
        j : 2.66271e-05 2.66271e-05 2.59422e-05 2.59422e-05 
        k : 0.000570223 0.000570223 0.000573331 0.000573331 
    Block 5 cell size :
        i : 1
        j : 2.59422e-05 2.59422e-05 2.6e-05 2.6e-05 
        k : 0.000570223 0.000570223 0.00057234 0.00057234 
    Block 6 cell size :
        i : 1
        j : 2.6e-05 2.6e-05 2.52982e-05 2.52982e-05 
        k : 0.000570359 0.000570359 0.00057234 0.00057234 
    Block 7 cell size :
        i : 1
        j : 0.000364585 0.000364585 0.00039174 0.00039174 
        k : 4e-05 4e-05 2.91548e-05 2.91548e-05 
    Block 8 cell size :
        i : 1
        j : 2.52982e-05 2.52982e-05 2.59615e-05 2.59615e-05 
        k : 0.000571214 0.000571214 0.00057234 0.00057234 
    Block 9 cell size :
        i : 1
        j : 2.59615e-05 2.59615e-05 2.78927e-05 2.78927e-05 
        k : 0.000572205 0.000572205 0.000572477 0.000572477 
    Block 10 cell size :
        i : 1
        j : 0.000383678 0.000383678 0.000384532 0.000384532 
        k : 2.41868e-05 2.41868e-05 2.5318e-05 2.5318e-05 
    Block 11 cell size :
        i : 1
        j : 4e-05 4e-05 3.46554e-05 3.46554e-05 
        k : 0.000560454 0.000560454 0.000567387 0.000567387 
    Block 12 cell size :
        i : 1
        j : 3.46554e-05 3.46554e-05 3.26497e-05 3.26497e-05 
        k : 0.000564143 0.000564143 0.000568241 0.000568241 
    Block 13 cell size :
        i : 1
        j : 3.26497e-05 3.26497e-05 3.19061e-05 3.19061e-05 
        k : 0.000566125 0.000566125 0.000570359 0.000570359 
    Block 14 cell size :
        i : 1
        j : 3.19061e-05 3.19061e-05 3.1305e-05 3.1305e-05 
        k : 0.000567116 0.000567116 0.000570223 0.000570223 
    Block 15 cell size :
        i : 1
        j : 3.1305e-05 3.1305e-05 3.13847e-05 3.13847e-05 
        k : 0.000568107 0.000568107 0.000570223 0.000570223 
    Block 16 cell size :
        i : 1
        j : 3.13847e-05 3.13847e-05 3.19531e-05 3.19531e-05 
        k : 0.000569232 0.000569232 0.000570359 0.000570359 
    Block 17 cell size :
        i : 1
        j : 3.44093e-05 3.44093e-05 7.42024e-05 7.42024e-05 
        k : 2.82843e-05 2.82843e-05 2.91548e-05 2.91548e-05 
    Block 18 cell size :
        i : 1
        j : 0.00033036 0.00033036 0.000364585 0.000364585 
        k : 4.78017e-05 4.78017e-05 3.43657e-05 3.43657e-05 
    Block 19 cell size :
        i : 1
        j : 3.19531e-05 3.19531e-05 3.13209e-05 3.13209e-05 
        k : 0.000569232 0.000569232 0.000571214 0.000571214 
    Block 20 cell size :
        i : 1
        j : 3.13209e-05 3.13209e-05 3.27567e-05 3.27567e-05 
        k : 0.000569956 0.000569956 0.000572205 0.000572205 
    Block 21 cell size :
        i : 1
        j : 2.78927e-05 2.78927e-05 2.84429e-05 2.84429e-05 
        k : 0.000571214 0.000571214 0.000573331 0.000573331 
    Block 22 cell size :
        i : 1
        j : 0.000384104 0.000384104 0.000383678 0.000383678 
        k : 2.82843e-05 2.82843e-05 3.1257e-05 3.1257e-05 
    Block 23 cell size :
        i : 1
        j : 4.78017e-05 4.78017e-05 4.17253e-05 4.17253e-05 
        k : 0.000552533 0.000552533 0.000560454 0.000560454 
    Block 24 cell size :
        i : 1
        j : 4.17253e-05 4.17253e-05 3.90512e-05 3.90512e-05 
        k : 0.000559054 0.000559054 0.000564143 0.000564143 
    Block 25 cell size :
        i : 1
        j : 3.90512e-05 3.90512e-05 3.82753e-05 3.82753e-05 
        k : 0.000561894 0.000561894 0.000566125 0.000566125 
    Block 26 cell size :
        i : 1
        j : 3.82753e-05 3.82753e-05 3.71214e-05 3.71214e-05 
        k : 0.000563018 0.000563018 0.000567116 0.000567116 
    Block 27 cell size :
        i : 1
        j : 3.71214e-05 3.71214e-05 3.67696e-05 3.67696e-05 
        k : 0.000565 0.000565 0.000568107 0.000568107 
    Block 28 cell size :
        i : 1
        j : 3.67696e-05 3.67696e-05 3.79473e-05 3.79473e-05 
        k : 0.000566982 0.000566982 0.000569232 0.000569232 
    Block 29 cell size :
        i : 1
        j : 7.42024e-05 7.42024e-05 0.0001236 0.0001236 
        k : 3.53553e-05 3.53553e-05 3.43657e-05 3.43657e-05 
    Block 30 cell size :
        i : 1
        j : 0.000290203 0.000290203 0.00033036 0.00033036 
        k : 5.72014e-05 5.72014e-05 4.24264e-05 4.24264e-05 
    Block 31 cell size :
        i : 1
        j : 3.79473e-05 3.79473e-05 3.83275e-05 3.83275e-05 
        k : 0.000567116 0.000567116 0.000569232 0.000569232 
    Block 32 cell size :
        i : 1
        j : 3.83275e-05 3.83275e-05 3.90512e-05 3.90512e-05 
        k : 0.000568834 0.000568834 0.000569956 0.000569956 
    Block 33 cell size :
        i : 1
        j : 3.27567e-05 3.27567e-05 3.47131e-05 3.47131e-05 
        k : 0.000570947 0.000570947 0.000571214 0.000571214 
    Block 34 cell size :
        i : 1
        j : 2.84429e-05 2.84429e-05 3.14006e-05 3.14006e-05 
        k : 0.00059923 0.00059923 0.000599633 0.000599633 
    Block 35 cell size :
        i : 1
        j : 3.5805e-05 3.5805e-05 7.92023e-05 7.92023e-05 
        k : 3.02655e-05 3.02655e-05 3.1257e-05 3.1257e-05 
    Block 36 cell size :
        i : 1
        j : 0.000561584 0.000561584 0.00056117 0.00056117 
        k : 2.5318e-05 2.5318e-05 2.82843e-05 2.82843e-05 
    Block 37 cell size :
        i : 1
        j : 0.000384251 0.000384251 0.000384104 0.000384104 
        k : 3.53553e-05 3.53553e-05 3.63456e-05 3.63456e-05 
    Block 38 cell size :
        i : 1
        j : 5.72014e-05 5.72014e-05 4.94975e-05 4.94975e-05 
        k : 0.000541503 0.000541503 0.000552533 0.000552533 
    Block 39 cell size :
        i : 1
        j : 4.94975e-05 4.94975e-05 4.7634e-05 4.7634e-05 
        k : 0.000553832 0.000553832 0.000559054 0.000559054 
    Block 40 cell size :
        i : 1
        j : 4.7634e-05 4.7634e-05 4.54863e-05 4.54863e-05 
        k : 0.000556806 0.000556806 0.000561894 0.000561894 
    Block 41 cell size :
        i : 1
        j : 4.54863e-05 4.54863e-05 4.51774e-05 4.51774e-05 
        k : 0.000558789 0.000558789 0.000563018 0.000563018 
    Block 42 cell size :
        i : 1
        j : 4.51774e-05 4.51774e-05 4.56946e-05 4.56946e-05 
        k : 0.000561763 0.000561763 0.000565 0.000565 
    Block 43 cell size :
        i : 1
        j : 4.56946e-05 4.56946e-05 4.42719e-05 4.42719e-05 
        k : 0.000563018 0.000563018 0.000566982 0.000566982 
    Block 44 cell size :
        i : 1
        j : 0.0001236 0.0001236 0.000183404 0.000183404 
        k : 4.13038e-05 4.13038e-05 4.24264e-05 4.24264e-05 
    Block 45 cell size :
        i : 1
        j : 0.000240859 0.000240859 0.000290203 0.000290203 
        k : 6.92026e-05 6.92026e-05 4.94975e-05 4.94975e-05 
    Block 46 cell size :
        i : 1
        j : 4.42719e-05 4.42719e-05 4.58803e-05 4.58803e-05 
        k : 0.00056586 0.00056586 0.000567116 0.000567116 
    Block 47 cell size :
        i : 1
        j : 4.58803e-05 4.58803e-05 4.63249e-05 4.63249e-05 
        k : 0.000566721 0.000566721 0.000568834 0.000568834 
    Block 48 cell size :
        i : 1
        j : 3.90512e-05 3.90512e-05 4.07922e-05 4.07922e-05 
        k : 0.000569696 0.000569696 0.000570947 0.000570947 
    Block 49 cell size :
        i : 1
        j : 3.47131e-05 3.47131e-05 3.66742e-05 3.66742e-05 
        k : 0.00059897 0.00059897 0.00059923 0.00059923 
    Block 50 cell size :
        i : 1
        j : 3.14006e-05 3.14006e-05 3.33766e-05 3.33766e-05 
        k : 0.000678991 0.000678991 0.000679259 0.000679259 
    Block 51 cell size :
        i : 1
        j : 7.92023e-05 7.92023e-05 0.0001314 0.0001314 
        k : 3.73363e-05 3.73363e-05 3.63456e-05 3.63456e-05 
    Block 52 cell size :
        i : 1
        j : 0.000562014 0.000562014 0.000561584 0.000561584 
        k : 3.02655e-05 3.02655e-05 3.32415e-05 3.32415e-05 
    Block 53 cell size :
        i : 1
        j : 0.000635406 0.000635406 0.000634988 0.000634988 
        k : 2.82843e-05 2.82843e-05 3.1257e-05 3.1257e-05 
    Block 54 cell size :
        i : 1
        j : 0.00038372 0.00038372 0.000384251 0.000384251 
        k : 4.13038e-05 4.13038e-05 4.44072e-05 4.44072e-05 
    Block 55 cell size :
        i : 1
        j : 6.92026e-05 6.92026e-05 6.01415e-05 6.01415e-05 
        k : 0.000530763 0.000530763 0.000541503 0.000541503 
    Block 56 cell size :
        i : 1
        j : 6.01415e-05 6.01415e-05 5.62228e-05 5.62228e-05 
        k : 0.000544518 0.000544518 0.000553832 0.000553832 
    Block 57 cell size :
        i : 1
        j : 5.62228e-05 5.62228e-05 5.43783e-05 5.43783e-05 
        k : 0.000550597 0.000550597 0.000556806 0.000556806 
    Block 58 cell size :
        i : 1
        j : 5.43783e-05 5.43783e-05 5.41202e-05 5.41202e-05 
        k : 0.000554564 0.000554564 0.000558789 0.000558789 
    Block 59 cell size :
        i : 1
        j : 5.41202e-05 5.41202e-05 5.33104e-05 5.33104e-05 
        k : 0.000557667 0.000557667 0.000561763 0.000561763 
    Block 60 cell size :
        i : 1
        j : 5.33104e-05 5.33104e-05 5.40833e-05 5.40833e-05 
        k : 0.00055978 0.00055978 0.000563018 0.000563018 
    Block 61 cell size :
        i : 1
        j : 0.000183404 0.000183404 0.000253403 0.000253403 
        k : 4.94975e-05
    Block 62 cell size :
        i : 1
        j : 0.000182822 0.000182822 0.000240859 0.000240859 
        k : 8.20061e-05 8.20061e-05 6.0531e-05 6.0531e-05 
    Block 63 cell size :
        i : 1
        j : 5.40833e-05 5.40833e-05 5.50818e-05 5.50818e-05 
        k : 0.000562626 0.000562626 0.00056586 0.00056586 
    Block 64 cell size :
        i : 1
        j : 5.50818e-05 5.50818e-05 5.65155e-05 5.65155e-05 
        k : 0.000564483 0.000564483 0.000566721 0.000566721 
    Block 65 cell size :
        i : 1
        j : 4.63249e-05 4.63249e-05 5.001e-05 5.001e-05 
        k : 0.000568205 0.000568205 0.000569696 0.000569696 
    Block 66 cell size :
        i : 1
        j : 4.07922e-05 4.07922e-05 4.47214e-05 4.47214e-05 
        k : 0.000598469 0.000598469 0.00059897 0.00059897 
    Block 67 cell size :
        i : 1
        j : 3.66742e-05 3.66742e-05 4.06079e-05 4.06079e-05 
        k : 0.000678473 0.000678473 0.000678991 0.000678991 
    Block 68 cell size :
        i : 1
        j : 3.33766e-05 3.33766e-05 3.74833e-05 3.74833e-05 
        k : 0.000770647 0.000770647 0.000770191 0.000770191 
    Block 69 cell size :
        i : 1
        j : 0.0001314 0.0001314 0.000194201 0.000194201 
        k : 4.44072e-05
    Block 70 cell size :
        i : 1
        j : 0.000561471 0.000561471 0.000562014 0.000562014 
        k : 3.73363e-05 3.73363e-05 4.04475e-05 4.04475e-05 
    Block 71 cell size :
        i : 1
        j : 0.000634996 0.000634996 0.000635406 0.000635406 
        k : 3.32415e-05 3.32415e-05 3.73363e-05 3.73363e-05 
    Block 72 cell size :
        i : 1
        j : 0.000721391 0.000721391 0.000721821 0.000721821 
        k : 3.1257e-05 3.1257e-05 3.53553e-05 3.53553e-05 
    Block 73 cell size :
        i : 1
        j : 0.0003842 0.0003842 0.00038372 0.00038372 
        k : 4.94975e-05 4.94975e-05 5.2469e-05 5.2469e-05 
    Block 74 cell size :
        i : 1
        j : 8.20061e-05 8.20061e-05 7.21249e-05 7.21249e-05 
        k : 0.000516769 0.000516769 0.000530763 0.000530763 
    Block 75 cell size :
        i : 1
        j : 7.21249e-05 7.21249e-05 6.74759e-05 6.74759e-05 
        k : 0.000536456 0.000536456 0.000544518 0.000544518 
    Block 76 cell size :
        i : 1
        j : 6.74759e-05 6.74759e-05 6.65733e-05 6.65733e-05 
        k : 0.000543148 0.000543148 0.000550597 0.000550597 
    Block 77 cell size :
        i : 1
        j : 6.65733e-05 6.65733e-05 6.52993e-05 6.52993e-05 
        k : 0.000548358 0.000548358 0.000554564 0.000554564 
    Block 78 cell size :
        i : 1
        j : 6.52993e-05 6.52993e-05 6.5e-05 6.5e-05 
        k : 0.000552453 0.000552453 0.000557667 0.000557667 
    Block 79 cell size :
        i : 1
        j : 6.5e-05 6.5e-05 6.54599e-05 6.54599e-05 
        k : 0.000555556 0.000555556 0.00055978 0.00055978 
    Block 80 cell size :
        i : 1
        j : 0.000253403 0.000253403 0.000339006 0.000339006 
        k : 6.0531e-05
    Block 81 cell size :
        i : 1
        j : 0.000113565 0.000113565 0.000182822 0.000182822 
        k : 9.86002e-05 9.86002e-05 7.17008e-05 7.17008e-05 
    Block 82 cell size :
        i : 1
        j : 6.54599e-05 6.54599e-05 6.52534e-05 6.52534e-05 
        k : 0.000558531 0.000558531 0.000562626 0.000562626 
    Block 83 cell size :
        i : 1
        j : 6.52534e-05 6.52534e-05 6.76831e-05 6.76831e-05 
        k : 0.000562128 0.000562128 0.000564483 0.000564483 
    Block 84 cell size :
        i : 1
        j : 5.65155e-05 5.65155e-05 5.92284e-05 5.92284e-05 
        k : 0.000566855 0.000566855 0.000568205 0.000568205 
    Block 85 cell size :
        i : 1
        j : 5.001e-05 5.001e-05 5.27731e-05 5.27731e-05 
        k : 0.000597117 0.000597117 0.000598469 0.000598469 
    Block 86 cell size :
        i : 1
        j : 4.47214e-05 4.47214e-05 4.96488e-05 4.96488e-05 
        k : 0.000677857 0.000677857 0.000678473 0.000678473 
    Block 87 cell size :
        i : 1
        j : 4.06079e-05 4.06079e-05 4.55412e-05 4.55412e-05 
        k : 0.000770008 0.000770008 0.000770647 0.000770647 
    Block 88 cell size :
        i : 1
        j : 3.74833e-05 3.74833e-05 4.24264e-05 4.24264e-05 
        k : 0.000876576 0.000876576 0.000877246 0.000877246 
    Block 89 cell size :
        i : 1
        j : 0.000571349 0.000571349 0.00057234 0.00057234 
        k : 2.71662e-05 2.71662e-05 2.7074e-05 2.7074e-05 
    Block 90 cell size :
        i : 1
        j : 0.000571349 0.000571349 0.00057234 0.00057234 
        k : 2.7074e-05 2.7074e-05 2.70185e-05 2.70185e-05 
    Block 91 cell size :
        i : 1
        j : 0.000571349 0.000571349 0.000573331 0.000573331 
        k : 2.70185e-05
    Block 92 cell size :
        i : 1
        j : 0.000572477 0.000572477 0.00057234 0.00057234 
        k : 2.7074e-05 2.7074e-05 2.80713e-05 2.80713e-05 
    Block 93 cell size :
        i : 1
        j : 0.00057234 0.00057234 0.000572477 0.000572477 
        k : 2.70185e-05 2.70185e-05 2.60192e-05 2.60192e-05 
    Block 94 cell size :
        i : 1
        j : 0.000571487 0.000571487 0.00057234 0.00057234 
        k : 2.60192e-05 2.60192e-05 2.7074e-05 2.7074e-05 
    Block 95 cell size :
        i : 1
        j : 0.000572477 0.000572477 0.00057234 0.00057234 
        k : 2.80713e-05 2.80713e-05 2.90689e-05 2.90689e-05 
    Block 96 cell size :
        i : 1
        j : 0.000607971 0.000607971 0.000608685 0.000608685 
        k : 2.90689e-05 2.90689e-05 3.11448e-05 3.11448e-05 
    Block 97 cell size :
        i : 1
        j : 0.000689854 0.000689854 0.000689438 0.000689438 
        k : 3.11448e-05 3.11448e-05 3.41321e-05 3.41321e-05 
    Block 98 cell size :
        i : 1
        j : 0.000571487 0.000571487 0.00057234 0.00057234 
        k : 2.63059e-05 2.63059e-05 2.71662e-05 2.71662e-05 
    Block 99 cell size :
        i : 1
        j : 0.000570359 0.000570359 0.00057234 0.00057234 
        k : 2.66833e-05 2.66833e-05 2.63059e-05 2.63059e-05 
    Block 100 cell size :
        i : 1
        j : 0.000570496 0.000570496 0.000573331 0.000573331 
        k : 2.65707e-05 2.65707e-05 2.66833e-05 2.66833e-05 
    Block 101 cell size :
        i : 1
        j : 0.000820244 0.000820244 0.000820678 0.000820678 
        k : 3.53553e-05 3.53553e-05 3.94588e-05 3.94588e-05 
    Block 102 cell size :
        i : 1
        j : 0.000194201 0.000194201 0.000268403 0.000268403 
        k : 5.2469e-05
    Block 103 cell size :
        i : 1
        j : 0.000561103 0.000561103 0.000561471 0.000561471 
        k : 4.44072e-05 4.44072e-05 4.85077e-05 4.85077e-05 
    Block 104 cell size :
        i : 1
        j : 0.000635755 0.000635755 0.000634996 0.000634996 
        k : 4.04475e-05 4.04475e-05 4.53982e-05 4.53982e-05 
    Block 105 cell size :
        i : 1
        j : 0.000722122 0.000722122 0.000721391 0.000721391 
        k : 3.73363e-05 3.73363e-05 4.22966e-05 4.22966e-05 
    Block 106 cell size :
        i : 1
        j : 0.000383719 0.000383719 0.0003842 0.0003842 
        k : 6.0531e-05 6.0531e-05 6.36396e-05 6.36396e-05 
    Block 107 cell size :
        i : 1
        j : 9.86002e-05 9.86002e-05 8.62786e-05 8.62786e-05 
        k : 0.000499812 0.000499812 0.000516769 0.000516769 
    Block 108 cell size :
        i : 1
        j : 8.62786e-05 8.62786e-05 8.24621e-05 8.24621e-05 
        k : 0.000526031 0.000526031 0.000536456 0.000536456 
    Block 109 cell size :
        i : 1
        j : 8.24621e-05 8.24621e-05 7.87718e-05 7.87718e-05 
        k : 0.000533971 0.000533971 0.000543148 0.000543148 
    Block 110 cell size :
        i : 1
        j : 7.87718e-05 7.87718e-05 7.78267e-05 7.78267e-05 
        k : 0.000541041 0.000541041 0.000548358 0.000548358 
    Block 111 cell size :
        i : 1
        j : 7.78267e-05 7.78267e-05 7.8e-05 7.8e-05 
        k : 0.000546125 0.000546125 0.000552453 0.000552453 
    Block 112 cell size :
        i : 1
        j : 7.8e-05 7.8e-05 7.71622e-05 7.71622e-05 
        k : 0.000550469 0.000550469 0.000555556 0.000555556 
    Block 113 cell size :
        i : 1
        j : 0.000339006 0.000339006 0.000440405 0.000440405 
        k : 7.17008e-05
    Block 114 cell size :
        i : 1
        j : 3.04138e-05 3.04138e-05 0.000113565 0.000113565 
        k : 0.000119202 0.000119202 8.58429e-05 8.58429e-05 
    Block 115 cell size :
        i : 1
        j : 7.71622e-05 7.71622e-05 7.91202e-05 7.91202e-05 
        k : 0.00055518 0.00055518 0.000558531 0.000558531 
    Block 116 cell size :
        i : 1
        j : 7.91202e-05 7.91202e-05 8.12527e-05 8.12527e-05 
        k : 0.000558793 0.000558793 0.000562128 0.000562128 
    Block 117 cell size :
        i : 1
        j : 6.76831e-05 6.76831e-05 7.13863e-05 7.13863e-05 
        k : 0.00056541 0.00056541 0.000566855 0.000566855 
    Block 118 cell size :
        i : 1
        j : 4.24264e-05 4.24264e-05 4.85077e-05 4.85077e-05 
        k : 0.000996516 0.000996516 0.000996326 0.000996326 
    Block 119 cell size :
        i : 1
        j : 5.92284e-05 5.92284e-05 6.39531e-05 6.39531e-05 
        k : 0.000595558 0.000595558 0.000597117 0.000597117 
    Block 120 cell size :
        i : 1
        j : 5.27731e-05 5.27731e-05 5.86941e-05 5.86941e-05 
        k : 0.000677166 0.000677166 0.000677857 0.000677857 
    Block 121 cell size :
        i : 1
        j : 4.96488e-05 4.96488e-05 5.45894e-05 5.45894e-05 
        k : 0.0007694 0.0007694 0.000770008 0.000770008 
    Block 122 cell size :
        i : 1
        j : 4.55412e-05 4.55412e-05 5.16236e-05 5.16236e-05 
        k : 0.000876802 0.000876802 0.000876576 0.000876576 
    Block 123 cell size :
        i : 1
        j : 0.000569368 0.000569368 0.000571349 0.000571349 
        k : 3.21403e-05 3.21403e-05 3.20156e-05 3.20156e-05 
    Block 124 cell size :
        i : 1
        j : 0.000570359 0.000570359 0.000571349 0.000571349 
        k : 3.20156e-05 3.20156e-05 3.2e-05 3.2e-05 
    Block 125 cell size :
        i : 1
        j : 0.000570359 0.000570359 0.000571349 0.000571349 
        k : 3.2e-05 3.2e-05 3.20156e-05 3.20156e-05 
    Block 126 cell size :
        i : 1
        j : 0.000571626 0.000571626 0.000572477 0.000572477 
        k : 3.30606e-05 3.30606e-05 3.41321e-05 3.41321e-05 
    Block 127 cell size :
        i : 1
        j : 0.000571487 0.000571487 0.00057234 0.00057234 
        k : 3.20156e-05 3.20156e-05 3.30606e-05 3.30606e-05 
    Block 128 cell size :
        i : 1
        j : 0.000571487
        k : 3.30606e-05
    Block 129 cell size :
        i : 1
        j : 0.000571767 0.000571767 0.000572477 0.000572477 
        k : 3.41321e-05 3.41321e-05 3.62215e-05 3.62215e-05 
    Block 130 cell size :
        i : 1
        j : 0.000608254 0.000608254 0.000607971 0.000607971 
        k : 3.62215e-05 3.62215e-05 3.82099e-05 3.82099e-05 
    Block 131 cell size :
        i : 1
        j : 0.000781919 0.000781919 0.000782352 0.000782352 
        k : 3.41321e-05 3.41321e-05 3.82099e-05 3.82099e-05 
    Block 132 cell size :
        i : 1
        j : 0.000689292 0.000689292 0.000689854 0.000689854 
        k : 3.82099e-05 3.82099e-05 4.13038e-05 4.13038e-05 
    Block 133 cell size :
        i : 1
        j : 0.000569506 0.000569506 0.000571487 0.000571487 
        k : 3.23883e-05 3.23883e-05 3.21403e-05 3.21403e-05 
    Block 134 cell size :
        i : 1
        j : 0.000568516 0.000568516 0.000570359 0.000570359 
        k : 3.17805e-05 3.17805e-05 3.23883e-05 3.23883e-05 
    Block 135 cell size :
        i : 1
        j : 0.000571487 0.000571487 0.000572477 0.000572477 
        k : 2.69258e-05 2.69258e-05 2.65707e-05 2.65707e-05 
    Block 136 cell size :
        i : 1
        j : 0.000568797 0.000568797 0.000570496 0.000570496 
        k : 3.03645e-05 3.03645e-05 3.17805e-05 3.17805e-05 
    Block 137 cell size :
        i : 1
        j : 0.00093027 0.00093027 0.000929579 0.000929579 
        k : 3.94588e-05 3.94588e-05 4.44072e-05 4.44072e-05 
    Block 138 cell size :
        i : 1
        j : 0.000819977 0.000819977 0.000820244 0.000820244 
        k : 4.22966e-05 4.22966e-05 4.73814e-05 4.73814e-05 
    Block 139 cell size :
        i : 1
        j : 0.000268403 0.000268403 0.000358402 0.000358402 
        k : 6.36396e-05
    Block 140 cell size :
        i : 1
        j : 0.000561918 0.000561918 0.000561103 0.000561103 
        k : 5.2469e-05 5.2469e-05 5.74282e-05 5.74282e-05 
    Block 141 cell size :
        i : 1
        j : 0.000635731 0.000635731 0.000635755 0.000635755 
        k : 4.85077e-05 4.85077e-05 5.45894e-05 5.45894e-05 
    Block 142 cell size :
        i : 1
        j : 0.000721899 0.000721899 0.000722122 0.000722122 
        k : 4.53982e-05 4.53982e-05 5.04876e-05 5.04876e-05 
    Block 143 cell size :
        i : 1
        j : 0.00038461 0.00038461 0.000383719 0.000383719 
        k : 7.17008e-05 7.17008e-05 7.66551e-05 7.66551e-05 
    Block 144 cell size :
        i : 1
        j : 0.000119202 0.000119202 0.000103966 0.000103966 
        k : 0.000480054 0.000480054 0.000499812 0.000499812 
    Block 145 cell size :
        i : 1
        j : 0.000103966 0.000103966 9.66747e-05 9.66747e-05 
        k : 0.000511769 0.000511769 0.000526031 0.000526031 
    Block 146 cell size :
        i : 1
        j : 9.66747e-05 9.66747e-05 9.4578e-05 9.4578e-05 
        k : 0.000524559 0.000524559 0.000533971 0.000533971 
    Block 147 cell size :
        i : 1
        j : 9.4578e-05 9.4578e-05 9.34773e-05 9.34773e-05 
        k : 0.000531628 0.000531628 0.000541041 0.000541041 
    Block 148 cell size :
        i : 1
        j : 9.34773e-05 9.34773e-05 9.23093e-05 9.23093e-05 
        k : 0.000538934 0.000538934 0.000546125 0.000546125 
    Block 149 cell size :
        i : 1
        j : 9.23093e-05 9.23093e-05 9.42444e-05 9.42444e-05 
        k : 0.000545011 0.000545011 0.000550469 0.000550469 
    Block 150 cell size :
        i : 1
        j : 0.000440405 0.000440405 0.000562603 0.000562603 
        k : 8.68332e-05 8.68332e-05 8.58429e-05 8.58429e-05 
    Block 151 cell size :
        i : 1
        j : 9.42444e-05 9.42444e-05 9.46414e-05 9.46414e-05 
        k : 0.000549975 0.000549975 0.00055518 0.00055518 
    Block 152 cell size :
        i : 1
        j : 9.46414e-05 9.46414e-05 9.67729e-05 9.67729e-05 
        k : 0.000555471 0.000555471 0.000558793 0.000558793 
    Block 153 cell size :
        i : 1
        j : 8.12527e-05 8.12527e-05 8.47231e-05 8.47231e-05 
        k : 0.000562996 0.000562996 0.00056541 0.00056541 
    Block 154 cell size :
        i : 1
        j : 7.13863e-05 7.13863e-05 7.72787e-05 7.72787e-05 
        k : 0.000594933 0.000594933 0.000595558 0.000595558 
    Block 155 cell size :
        i : 1
        j : 4.85077e-05 4.85077e-05 5.54437e-05 5.54437e-05 
        k : 0.00113073 0.00113073 0.00113167 0.00113167 
    Block 156 cell size :
        i : 1
        j : 5.16236e-05 5.16236e-05 5.75587e-05 5.75587e-05 
        k : 0.000995751 0.000995751 0.000996516 0.000996516 
    Block 157 cell size :
        i : 1
        j : 6.39531e-05 6.39531e-05 6.98713e-05 6.98713e-05 
        k : 0.000676528 0.000676528 0.000677166 0.000677166 
    Block 158 cell size :
        i : 1
        j : 5.86941e-05 5.86941e-05 6.57647e-05 6.57647e-05 
        k : 0.000769598 0.000769598 0.0007694 0.0007694 
    Block 159 cell size :
        i : 1
        j : 5.45894e-05 5.45894e-05 6.15224e-05 6.15224e-05 
        k : 0.000875959 0.000875959 0.000876802 0.000876802 
    Block 160 cell size :
        i : 1
        j : 0.000567387 0.000567387 0.000569368 0.000569368 
        k : 3.82099e-05 3.82099e-05 3.80526e-05 3.80526e-05 
    Block 161 cell size :
        i : 1
        j : 0.000569368 0.000569368 0.000570359 0.000570359 
        k : 3.80526e-05 3.80526e-05 3.80132e-05 3.80132e-05 
    Block 162 cell size :
        i : 1
        j : 0.000569368 0.000569368 0.000570359 0.000570359 
        k : 3.80132e-05 3.80132e-05 3.8e-05 3.8e-05 
    Block 163 cell size :
        i : 1
        j : 0.000571767 0.000571767 0.000571626 0.000571626 
        k : 3.91152e-05 3.91152e-05 4.01123e-05 4.01123e-05 
    Block 164 cell size :
        i : 1
        j : 0.000569506 0.000569506 0.000571487 0.000571487 
        k : 3.8e-05 3.8e-05 3.80526e-05 3.80526e-05 
    Block 165 cell size :
        i : 1
        j : 0.000570636 0.000570636 0.000571487 0.000571487 
        k : 3.80526e-05 3.80526e-05 3.91152e-05 3.91152e-05 
    Block 166 cell size :
        i : 1
        j : 0.000571064 0.000571064 0.000571767 0.000571767 
        k : 4.01123e-05 4.01123e-05 4.219e-05 4.219e-05 
    Block 167 cell size :
        i : 1
        j : 0.000607701 0.000607701 0.000608254 0.000608254 
        k : 4.219e-05 4.219e-05 4.52769e-05 4.52769e-05 
    Block 168 cell size :
        i : 1
        j : 0.000888834 0.000888834 0.000890261 0.000890261 
        k : 3.82099e-05 3.82099e-05 4.24264e-05 4.24264e-05 
    Block 169 cell size :
        i : 1
        j : 0.000781508 0.000781508 0.000781919 0.000781919 
        k : 4.13038e-05 4.13038e-05 4.53982e-05 4.53982e-05 
    Block 170 cell size :
        i : 1
        j : 0.000688895 0.000688895 0.000689292 0.000689292 
        k : 4.52769e-05 4.52769e-05 4.9366e-05 4.9366e-05 
    Block 171 cell size :
        i : 1
        j : 0.00101215 0.00101215 0.0010116 0.0010116 
        k : 4.24264e-05 4.24264e-05 4.63897e-05 4.63897e-05 
    Block 172 cell size :
        i : 1
        j : 0.000567387 0.000567387 0.000569506 0.000569506 
        k : 3.94588e-05 3.94588e-05 3.82099e-05 3.82099e-05 
    Block 173 cell size :
        i : 1
        j : 0.000565828 0.000565828 0.000568516 0.000568516 
        k : 3.80789e-05 3.80789e-05 3.94588e-05 3.94588e-05 
    Block 174 cell size :
        i : 1
        j : 0.000572477 0.000572477 0.000577294 0.000577294 
        k : 2.83019e-05 2.83019e-05 2.69258e-05 2.69258e-05 
    Block 175 cell size :
        i : 1
        j : 0.000567525 0.000567525 0.000571487 0.000571487 
        k : 3.17805e-05 3.17805e-05 3.03645e-05 3.03645e-05 
    Block 176 cell size :
        i : 1
        j : 0.000565972 0.000565972 0.000568797 0.000568797 
        k : 3.79473e-05 3.79473e-05 3.80789e-05 3.80789e-05 
    Block 177 cell size :
        i : 1
        j : 0.00105656 0.00105656 0.00105699 0.00105699 
        k : 4.44072e-05 4.44072e-05 4.85077e-05 4.85077e-05 
    Block 178 cell size :
        i : 1
        j : 0.000930145 0.000930145 0.00093027 0.00093027 
        k : 4.73814e-05 4.73814e-05 5.34603e-05 5.34603e-05 
    Block 179 cell size :
        i : 1
        j : 0.000820051 0.000820051 0.000819977 0.000819977 
        k : 5.04876e-05 5.04876e-05 5.75587e-05 5.75587e-05 
    Block 180 cell size :
        i : 1
        j : 0.000358402 0.000358402 0.000466806 0.000466806 
        k : 7.66551e-05
    Block 181 cell size :
        i : 1
        j : 0.000561969 0.000561969 0.000561918 0.000561918 
        k : 6.36396e-05 6.36396e-05 6.97209e-05 6.97209e-05 
    Block 182 cell size :
        i : 1
        j : 0.00063594 0.00063594 0.000635731 0.000635731 
        k : 5.74282e-05 5.74282e-05 6.44981e-05 6.44981e-05 
    Block 183 cell size :
        i : 1
        j : 0.000722042 0.000722042 0.000721899 0.000721899 
        k : 5.45894e-05 5.45894e-05 6.16604e-05 6.16604e-05 
    Block 184 cell size :
        i : 1
        j : 0.000384584 0.000384584 0.00038461 0.00038461 
        k : 8.68332e-05 8.68332e-05 9.19239e-05 9.19239e-05 
    Block 185 cell size :
        i : 1
        j : 9.67729e-05 9.67729e-05 0.000102961 0.000102961 
        k : 0.00055933 0.00055933 0.000562996 0.000562996 
    Block 186 cell size :
        i : 1
        j : 8.47231e-05 8.47231e-05 9.23959e-05 9.23959e-05 
        k : 0.000593196 0.000593196 0.000594933 0.000594933 
    Block 187 cell size :
        i : 1
        j : 7.72787e-05 7.72787e-05 8.41724e-05 8.41724e-05 
        k : 0.00067585 0.00067585 0.000676528 0.000676528 
    Block 188 cell size :
        i : 1
        j : 5.54437e-05 5.54437e-05 6.0531e-05 6.0531e-05 
        k : 0.00128727 0.00128727 0.00128695 0.00128695 
    Block 189 cell size :
        i : 1
        j : 5.75587e-05 5.75587e-05 6.56201e-05 6.56201e-05 
        k : 0.0011307 0.0011307 0.00113073 0.00113073 
    Block 190 cell size :
        i : 1
        j : 6.15224e-05 6.15224e-05 7.07107e-05 7.07107e-05 
        k : 0.000996657 0.000996657 0.000995751 0.000995751 
    Block 191 cell size :
        i : 1
        j : 6.98713e-05 6.98713e-05 7.87718e-05 7.87718e-05 
        k : 0.000768668 0.000768668 0.000769598 0.000769598 
    Block 192 cell size :
        i : 1
        j : 6.57647e-05 6.57647e-05 7.38241e-05 7.38241e-05 
        k : 0.000876058 0.000876058 0.000875959 0.000875959 
    Block 193 cell size :
        i : 1
        j : 0.000565406 0.000565406 0.000567387 0.000567387 
        k : 4.62709e-05 4.62709e-05 4.60977e-05 4.60977e-05 
    Block 194 cell size :
        i : 1
        j : 0.000566397 0.000566397 0.000569368 0.000569368 
        k : 4.60977e-05 4.60977e-05 4.6e-05 4.6e-05 
    Block 195 cell size :
        i : 1
        j : 0.000568378 0.000568378 0.000569368 0.000569368 
        k : 4.6e-05 4.6e-05 4.60109e-05 4.60109e-05 
    Block 196 cell size :
        i : 1
        j : 0.000570075 0.000570075 0.000571767 0.000571767 
        k : 4.70956e-05 4.70956e-05 4.92544e-05 4.92544e-05 
    Block 197 cell size :
        i : 1
        j : 0.000568516 0.000568516 0.000569506 0.000569506 
        k : 4.60109e-05 4.60109e-05 4.60435e-05 4.60435e-05 
    Block 198 cell size :
        i : 1
        j : 0.000569787 0.000569787 0.000570636 0.000570636 
        k : 4.60435e-05 4.60435e-05 4.70956e-05 4.70956e-05 
    Block 199 cell size :
        i : 1
        j : 0.000571358 0.000571358 0.000571064 0.000571064 
        k : 4.92544e-05 4.92544e-05 5.12445e-05 5.12445e-05 
    Block 200 cell size :
        i : 1
        j : 0.000607319 0.000607319 0.000607701 0.000607701 
        k : 5.12445e-05 5.12445e-05 5.53263e-05 5.53263e-05 
    Block 201 cell size :
        i : 1
        j : 0.00088955 0.00088955 0.000888834 0.000888834 
        k : 4.53982e-05 4.53982e-05 5.03587e-05 5.03587e-05 
    Block 202 cell size :
        i : 1
        j : 0.000782259 0.000782259 0.000781508 0.000781508 
        k : 4.9366e-05 4.9366e-05 5.43323e-05 5.43323e-05 
    Block 203 cell size :
        i : 1
        j : 0.000688523 0.000688523 0.000688895 0.000688895 
        k : 5.53263e-05 5.53263e-05 5.94138e-05 5.94138e-05 
    Block 204 cell size :
        i : 1
        j : 0.00114848 0.00114848 0.00114765 0.00114765 
        k : 4.63897e-05 4.63897e-05 5.2345e-05 5.2345e-05 
    Block 205 cell size :
        i : 1
        j : 0.00101203 0.00101203 0.00101215 0.00101215 
        k : 5.03587e-05 5.03587e-05 5.64358e-05 5.64358e-05 
    Block 206 cell size :
        i : 1
        j : 0.000564555 0.000564555 0.000567387 0.000567387 
        k : 4.57056e-05 4.57056e-05 4.62709e-05 4.62709e-05 
    Block 207 cell size :
        i : 1
        j : 0.000563848 0.000563848 0.000565828 0.000565828 
        k : 4.60977e-05 4.60977e-05 4.57056e-05 4.57056e-05 
    Block 208 cell size :
        i : 1
        j : 0.000575312 0.000575312 0.000579411 0.000579411 
        k : 3.14006e-05 3.14006e-05 2.83019e-05 2.83019e-05 
    Block 209 cell size :
        i : 1
        j : 0.000569506 0.000569506 0.000572477 0.000572477 
        k : 3.3121e-05 3.3121e-05 3.17805e-05 3.17805e-05 
    Block 210 cell size :
        i : 1
        j : 0.000564695 0.000564695 0.000567525 0.000567525 
        k : 3.80789e-05 3.80789e-05 3.79473e-05 3.79473e-05 
    Block 211 cell size :
        i : 1
        j : 0.00056231 0.00056231 0.000565972 0.000565972 
        k : 4.52217e-05 4.52217e-05 4.60977e-05 4.60977e-05 
    Block 212 cell size :
        i : 1
        j : 0.000568241 0.000568241 0.000575312 0.000575312 
        k : 3.78021e-05 3.78021e-05 3.3121e-05 3.3121e-05 
    Block 213 cell size :
        i : 1
        j : 3.53553e-05 3.53553e-05 4.04475e-05 4.04475e-05 
        k : 0.000850276 0.000850276 0.000849953 0.000849953 
    Block 214 cell size :
        i : 1
        j : 0.00119996 0.00119996 0.00119913 0.00119913 
        k : 4.85077e-05 4.85077e-05 5.44518e-05 5.44518e-05 
    Block 215 cell size :
        i : 1
        j : 0.00105643 0.00105643 0.00105656 0.00105656 
        k : 5.34603e-05 5.34603e-05 5.95399e-05 5.95399e-05 
    Block 216 cell size :
        i : 1
        j : 0.000930059 0.000930059 0.000930145 0.000930145 
        k : 5.75587e-05 5.75587e-05 6.36396e-05 6.36396e-05 
    Block 217 cell size :
        i : 1
        j : 0.000821173 0.000821173 0.000820051 0.000820051 
        k : 6.16604e-05 6.16604e-05 6.8593e-05 6.8593e-05 
    Block 218 cell size :
        i : 1
        j : 0.000466806 0.000466806 0.000596008 0.000596008 
        k : 9.0934e-05 9.0934e-05 9.19239e-05 9.19239e-05 
    Block 219 cell size :
        i : 1
        j : 0.000562275 0.000562275 0.000561969 0.000561969 
        k : 7.66551e-05 7.66551e-05 8.37257e-05 8.37257e-05 
    Block 220 cell size :
        i : 1
        j : 0.000636416 0.000636416 0.00063594 0.00063594 
        k : 6.97209e-05 6.97209e-05 7.77817e-05 7.77817e-05 
    Block 221 cell size :
        i : 1
        j : 0.000721624 0.000721624 0.000722042 0.000722042 
        k : 6.44981e-05 6.44981e-05 7.36817e-05 7.36817e-05 
    Block 222 cell size :
        i : 1
        j : 0.00136146 0.00136146 0.00136275 0.00136275 
        k : 5.44518e-05 5.44518e-05 5.96825e-05 5.96825e-05 
    Block 223 cell size :
        i : 1
        j : 0.00154715 0.00154715 0.0015466 0.0015466 
        k : 5.96825e-05 5.96825e-05 6.36396e-05 6.36396e-05 
    Block 224 cell size :
        i : 1
        j : 3.04138e-05 3.04138e-05 3.53553e-05 3.53553e-05 
        k : 0.00074633 0.00074633 0.000746997 0.000746997 
    Block 225 cell size :
        i : 1
        j : 0.00130589 0.00130589 0.00130731 0.00130731 
        k : 5.2345e-05 5.2345e-05 5.65685e-05 5.65685e-05 
    Block 226 cell size :
        i : 1
        j : 6.0531e-05 6.0531e-05 6.76018e-05 6.76018e-05 
        k : 0.00146081 0.00146081 0.00146076 0.00146076 
    Block 227 cell size :
        i : 1
        j : 0.000102961 0.000102961 0.000109659 0.000109659 
        k : 0.000591638 0.000591638 0.000593196 0.000593196 
    Block 228 cell size :
        i : 1
        j : 9.23959e-05 9.23959e-05 0.000101272 0.000101272 
        k : 0.000675084 0.000675084 0.00067585 0.00067585 
    Block 229 cell size :
        i : 1
        j : 8.41724e-05 8.41724e-05 9.40479e-05 9.40479e-05 
        k : 0.000767756 0.000767756 0.000768668 0.000768668 
    Block 230 cell size :
        i : 1
        j : 6.56201e-05 6.56201e-05 7.36817e-05 7.36817e-05 
        k : 0.00128723 0.00128723 0.00128727 0.00128727 
    Block 231 cell size :
        i : 1
        j : 7.07107e-05 7.07107e-05 7.87718e-05 7.87718e-05 
        k : 0.00113073 0.00113073 0.0011307 0.0011307 
    Block 232 cell size :
        i : 1
        j : 7.38241e-05 7.38241e-05 8.3863e-05 8.3863e-05 
        k : 0.000996547 0.000996547 0.000996657 0.000996657 
    Block 233 cell size :
        i : 1
        j : 7.87718e-05 7.87718e-05 8.8955e-05 8.8955e-05 
        k : 0.000877032 0.000877032 0.000876058 0.000876058 
    Block 234 cell size :
        i : 1
        j : 0.000562297 0.000562297 0.000565406 0.000565406 
        k : 5.62228e-05 5.62228e-05 5.50364e-05 5.50364e-05 
    Block 235 cell size :
        i : 1
        j : 0.000565269 0.000565269 0.000566397 0.000566397 
        k : 5.50364e-05 5.50364e-05 5.40093e-05 5.40093e-05 
    Block 236 cell size :
        i : 1
        j : 0.000565545 0.000565545 0.000568378 0.000568378 
        k : 5.40093e-05 5.40093e-05 5.50364e-05 5.50364e-05 
    Block 237 cell size :
        i : 1
        j : 0.000570221 0.000570221 0.000570075 0.000570075 
        k : 5.71402e-05 5.71402e-05 5.81378e-05 5.81378e-05 
    Block 238 cell size :
        i : 1
        j : 0.000567665 0.000567665 0.000568516 0.000568516 
        k : 5.50364e-05 5.50364e-05 5.60803e-05 5.60803e-05 
    Block 239 cell size :
        i : 1
        j : 0.00056894 0.00056894 0.000569787 0.000569787 
        k : 5.60803e-05 5.60803e-05 5.71402e-05 5.71402e-05 
    Block 240 cell size :
        i : 1
        j : 0.000569836 0.000569836 0.000571358 0.000571358 
        k : 5.81378e-05 5.81378e-05 6.12944e-05 6.12944e-05 
    Block 241 cell size :
        i : 1
        j : 0.000606964 0.000606964 0.000607319 0.000607319 
        k : 6.12944e-05 6.12944e-05 6.53758e-05 6.53758e-05 
    Block 242 cell size :
        i : 1
        j : 0.000889612 0.000889612 0.00088955 0.00088955 
        k : 5.43323e-05 5.43323e-05 6.14003e-05 6.14003e-05 
    Block 243 cell size :
        i : 1
        j : 0.000782215 0.000782215 0.000782259 0.000782259 
        k : 5.94138e-05 5.94138e-05 6.54905e-05 6.54905e-05 
    Block 244 cell size :
        i : 1
        j : 0.000688503 0.000688503 0.000688523 0.000688523 
        k : 6.53758e-05 6.53758e-05 7.14493e-05 7.14493e-05 
    Block 245 cell size :
        i : 1
        j : 0.00114821 0.00114821 0.00114848 0.00114848 
        k : 5.64358e-05 5.64358e-05 6.15224e-05 6.15224e-05 
    Block 246 cell size :
        i : 1
        j : 0.00101194 0.00101194 0.00101203 0.00101203 
        k : 6.14003e-05 6.14003e-05 6.74759e-05 6.74759e-05 
    Block 247 cell size :
        i : 1
        j : 0.000560594 0.000560594 0.000564555 0.000564555 
        k : 5.67186e-05 5.67186e-05 5.62228e-05 5.62228e-05 
    Block 248 cell size :
        i : 1
        j : 0.000560183 0.000560183 0.000563848 0.000563848 
        k : 5.55428e-05 5.55428e-05 5.67186e-05 5.67186e-05 
    Block 249 cell size :
        i : 1
        j : 3.14006e-05 3.14006e-05 2.31948e-05 2.31948e-05 
        k : 0.000393585 0.000393585 0.000415924 0.000415924 
    Block 250 cell size :
        i : 1
        j : 0.000563565 0.000563565 0.000569506 0.000569506 
        k : 4.08167e-05 4.08167e-05 3.80789e-05 3.80789e-05 
    Block 251 cell size :
        i : 1
        j : 0.000560036 0.000560036 0.000564695 0.000564695 
        k : 4.51885e-05 4.51885e-05 4.52217e-05 4.52217e-05 
    Block 252 cell size :
        i : 1
        j : 0.000558659 0.000558659 0.00056231 0.00056231 
        k : 5.47083e-05 5.47083e-05 5.55428e-05 5.55428e-05 
    Block 253 cell size :
        i : 1
        j : 0.00056117 0.00056117 0.000568241 0.000568241 
        k : 4.5607e-05 4.5607e-05 4.08167e-05 4.08167e-05 
    Block 254 cell size :
        i : 1
        j : 3.78021e-05 3.78021e-05 2.82843e-05 2.82843e-05 
        k : 0.000367151 0.000367151 0.000393585 0.000393585 
    Block 255 cell size :
        i : 1
        j : 4.04475e-05 4.04475e-05 4.55412e-05 4.55412e-05 
        k : 0.000963276 0.000963276 0.000962952 0.000962952 
    Block 256 cell size :
        i : 1
        j : 4.14367e-05 4.14367e-05 4.73814e-05 4.73814e-05 
        k : 0.000849514 0.000849514 0.000850276 0.000850276 
    Block 257 cell size :
        i : 1
        j : 4.55412e-05 4.55412e-05 5.2469e-05 5.2469e-05 
        k : 0.00109537 0.00109537 0.00109631 0.00109631 
    Block 258 cell size :
        i : 1
        j : 5.2469e-05 5.2469e-05 5.85491e-05 5.85491e-05 
        k : 0.00124075 0.00124075 0.00124057 0.00124057 
    Block 259 cell size :
        i : 1
        j : 5.85491e-05 5.85491e-05 6.56201e-05 6.56201e-05 
        k : 0.0014123 0.0014123 0.00141225 0.00141225 
    Block 260 cell size :
        i : 1
        j : 0.00119969 0.00119969 0.00119996 0.00119996 
        k : 5.95399e-05 5.95399e-05 6.46297e-05 6.46297e-05 
    Block 261 cell size :
        i : 1
        j : 0.00105748 0.00105748 0.00105643 0.00105643 
        k : 6.36396e-05 6.36396e-05 7.05762e-05 7.05762e-05 
    Block 262 cell size :
        i : 1
        j : 0.000929349 0.000929349 0.000930059 0.000930059 
        k : 6.8593e-05 6.8593e-05 7.67919e-05 7.67919e-05 
    Block 263 cell size :
        i : 1
        j : 0.000820731 0.000820731 0.000821173 0.000821173 
        k : 7.36817e-05 7.36817e-05 8.28734e-05 8.28734e-05 
    Block 264 cell size :
        i : 1
        j : 0.000563078 0.000563078 0.000562275 0.000562275 
        k : 9.0934e-05 9.0934e-05 9.9985e-05 9.9985e-05 
    Block 265 cell size :
        i : 1
        j : 0.000636419
        k : 8.37257e-05 8.37257e-05 9.39042e-05 9.39042e-05 
    Block 266 cell size :
        i : 1
        j : 0.000722497 0.000722497 0.000721624 0.000721624 
        k : 7.77817e-05 7.77817e-05 8.78237e-05 8.78237e-05 
    Block 267 cell size :
        i : 1
        j : 6.56201e-05 6.56201e-05 7.07107e-05 7.07107e-05 
        k : 0.00160235 0.00160235 0.00160204 0.00160204 
    Block 268 cell size :
        i : 1
        j : 0.00136246 0.00136246 0.00136146 0.00136146 
        k : 6.46297e-05 6.46297e-05 7.15681e-05 7.15681e-05 
    Block 269 cell size :
        i : 1
        j : 7.07107e-05 7.07107e-05 7.36817e-05 7.36817e-05 
        k : 0.00181759 0.00181759 0.00181799 0.00181799 
    Block 270 cell size :
        i : 1
        j : 0.00175504 0.00175504 0.00175436 0.00175436 
        k : 6.36396e-05 6.36396e-05 6.8593e-05 6.8593e-05 
    Block 271 cell size :
        i : 1
        j : 7.36817e-05 7.36817e-05 7.46726e-05 7.46726e-05 
        k : 0.00203989 0.00203989 0.00204003 0.00204003 
    Block 272 cell size :
        i : 1
        j : 0.00199419 0.00199419 0.00199463 0.00199463 
        k : 6.8593e-05 6.8593e-05 7.26911e-05 7.26911e-05 
    Block 273 cell size :
        i : 1
        j : 0.0021888 0.0021888 0.00218852 0.00218852 
        k : 7.26911e-05 7.26911e-05 7.46726e-05 7.46726e-05 
    Block 274 cell size :
        i : 1
        j : 0.00154701 0.00154701 0.00154715 0.00154715 
        k : 7.15681e-05 7.15681e-05 7.76466e-05 7.76466e-05 
    Block 275 cell size :
        i : 1
        j : 2.71662e-05 2.71662e-05 3.04138e-05 3.04138e-05 
        k : 0.000660753 0.000660753 0.000659173 0.000659173 
    Block 276 cell size :
        i : 1
        j : 3.73363e-05 3.73363e-05 4.14367e-05 4.14367e-05 
        k : 0.000746813 0.000746813 0.00074633 0.00074633 
    Block 277 cell size :
        i : 1
        j : 0.00148365 0.00148365 0.00148282 0.00148282 
        k : 5.65685e-05 5.65685e-05 6.2514e-05 6.2514e-05 
    Block 278 cell size :
        i : 1
        j : 0.0013059
        k : 6.15224e-05 6.15224e-05 6.8593e-05 6.8593e-05 
    Block 279 cell size :
        i : 1
        j : 6.76018e-05 6.76018e-05 7.05762e-05 7.05762e-05 
        k : 0.00166203 0.00166203 0.00166243 0.00166243 
    Block 280 cell size :
        i : 1
        j : 0.00188276 0.00188276 0.00188334 0.00188334 
        k : 7.05762e-05 7.05762e-05 7.36817e-05 7.36817e-05 
    Block 281 cell size :
        i : 1
        j : 0.0020331 0.0020331 0.00203296 0.00203296 
        k : 7.26911e-05 7.26911e-05 7.36817e-05 7.36817e-05 
    Block 282 cell size :
        i : 1
        j : 0.00210493 0.00210493 0.00210466 0.00210466 
        k : 7.07107e-05 7.07107e-05 7.26911e-05 7.26911e-05 
    Block 283 cell size :
        i : 1
        j : 0.00168645 0.00168645 0.00168675 0.00168675 
        k : 6.2514e-05 6.2514e-05 6.76018e-05 6.76018e-05 
    Block 284 cell size :
        i : 1
        j : 0.00191542 0.00191542 0.001916 0.001916 
        k : 6.76018e-05 6.76018e-05 7.07107e-05 7.07107e-05 
    Block 285 cell size :
        i : 1
        j : 7.36817e-05 7.36817e-05 8.07527e-05 8.07527e-05 
        k : 0.00146089 0.00146089 0.00146081 0.00146081 
    Block 286 cell size :
        i : 1
        j : 0.000109659 0.000109659 0.000121495 0.000121495 
        k : 0.000674248 0.000674248 0.000675084 0.000675084 
    Block 287 cell size :
        i : 1
        j : 0.000101272 0.000101272 0.000113283 0.000113283 
        k : 0.000767831 0.000767831 0.000767756 0.000767756 
    Block 288 cell size :
        i : 1
        j : 9.40479e-05 9.40479e-05 0.000107056 0.000107056 
        k : 0.000876879 0.000876879 0.000877032 0.000877032 
    Block 289 cell size :
        i : 1
        j : 7.87718e-05 7.87718e-05 8.78237e-05 8.78237e-05 
        k : 0.00128713 0.00128713 0.00128723 0.00128723 
    Block 290 cell size :
        i : 1
        j : 8.3863e-05 8.3863e-05 9.39042e-05 9.39042e-05 
        k : 0.0011306 0.0011306 0.00113073 0.00113073 
    Block 291 cell size :
        i : 1
        j : 8.8955e-05 8.8955e-05 9.9985e-05 9.9985e-05 
        k : 0.000996444 0.000996444 0.000996547 0.000996547 
    Block 292 cell size :
        i : 1
        j : 0.000559325 0.000559325 0.000562297 0.000562297 
        k : 6.63702e-05 6.63702e-05 6.61211e-05 6.61211e-05 
    Block 293 cell size :
        i : 1
        j : 0.000561307 0.000561307 0.000565269 0.000565269 
        k : 6.61211e-05 6.61211e-05 6.6e-05 6.6e-05 
    Block 294 cell size :
        i : 1
        j : 0.000564555 0.000564555 0.000565545 0.000565545 
        k : 6.6e-05 6.6e-05 6.60076e-05 6.60076e-05 
    Block 295 cell size :
        i : 1
        j : 0.000568694 0.000568694 0.000570221 0.000570221 
        k : 6.71193e-05 6.71193e-05 7.02567e-05 7.02567e-05 
    Block 296 cell size :
        i : 1
        j : 0.000565828 0.000565828 0.000567665 0.000567665 
        k : 6.60076e-05 6.60076e-05 6.70671e-05 6.70671e-05 
    Block 297 cell size :
        i : 1
        j : 0.000567951 0.000567951 0.00056894 0.00056894 
        k : 6.70671e-05 6.70671e-05 6.71193e-05 6.71193e-05 
    Block 298 cell size :
        i : 1
        j : 0.00056932 0.00056932 0.000569836 0.000569836 
        k : 7.02567e-05 7.02567e-05 7.33348e-05 7.33348e-05 
    Block 299 cell size :
        i : 1
        j : 0.000606806 0.000606806 0.000606964 0.000606964 
        k : 7.33348e-05 7.33348e-05 7.84092e-05 7.84092e-05 
    Block 300 cell size :
        i : 1
        j : 0.000888743 0.000888743 0.000889612 0.000889612 
        k : 6.54905e-05 6.54905e-05 7.26911e-05 7.26911e-05 
    Block 301 cell size :
        i : 1
        j : 0.000782387 0.000782387 0.000782215 0.000782215 
        k : 7.14493e-05 7.14493e-05 7.85175e-05 7.85175e-05 
    Block 302 cell size :
        i : 1
        j : 0.000688713 0.000688713 0.000688503 0.000688503 
        k : 7.84092e-05 7.84092e-05 8.54751e-05 8.54751e-05 
    Block 303 cell size :
        i : 1
        j : 0.00114742 0.00114742 0.00114821 0.00114821 
        k : 6.74759e-05 6.74759e-05 7.56637e-05 7.56637e-05 
    Block 304 cell size :
        i : 1
        j : 0.00101221 0.00101221 0.00101194 0.00101194 
        k : 7.26911e-05 7.26911e-05 8.07527e-05 8.07527e-05 
    Block 305 cell size :
        i : 1
        j : 0.000557624 0.000557624 0.000560594 0.000560594 
        k : 6.67533e-05 6.67533e-05 6.63702e-05 6.63702e-05 
    Block 306 cell size :
        i : 1
        j : 0.000555541 0.000555541 0.000560183 0.000560183 
        k : 6.57343e-05 6.57343e-05 6.67533e-05 6.67533e-05 
    Block 307 cell size :
        i : 1
        j : 0.000558474 0.000558474 0.000563565 0.000563565 
        k : 4.83735e-05 4.83735e-05 4.51885e-05 4.51885e-05 
    Block 308 cell size :
        i : 1
        j : 0.000555239 0.000555239 0.000560036 0.000560036 
        k : 5.55428e-05 5.55428e-05 5.47083e-05 5.47083e-05 
    Block 309 cell size :
        i : 1
        j : 0.000554033 0.000554033 0.000558659 0.000558659 
        k : 6.5146e-05 6.5146e-05 6.57343e-05 6.57343e-05 
    Block 310 cell size :
        i : 1
        j : 0.000551983 0.000551983 0.00056117 0.00056117 
        k : 5.5e-05 5.5e-05 4.83735e-05 4.83735e-05 
    Block 311 cell size :
        i : 1
        j : 4.5607e-05 4.5607e-05 3.32415e-05 3.32415e-05 
        k : 0.000334773 0.000334773 0.000367151 0.000367151 
    Block 312 cell size :
        i : 1
        j : 3.28024e-05 3.28024e-05 7.22011e-05 7.22011e-05 
        k : 2.82843e-05 2.82843e-05 2.72947e-05 2.72947e-05 
    Block 313 cell size :
        i : 1
        j : 2.31948e-05 2.31948e-05 2.5318e-05 2.5318e-05 
        k : 0.000384398 0.000384398 0.000383678 0.000383678 
    Block 314 cell size :
        i : 1
        j : 4.73814e-05 4.73814e-05 5.44518e-05 5.44518e-05 
        k : 0.000963378 0.000963378 0.000963276 0.000963276 
    Block 315 cell size :
        i : 1
        j : 4.94975e-05 4.94975e-05 5.65685e-05 5.65685e-05 
        k : 0.000849671 0.000849671 0.000849514 0.000849514 
    Block 316 cell size :
        i : 1
        j : 5.44518e-05 5.44518e-05 6.2514e-05 6.2514e-05 
        k : 0.00109535 0.00109535 0.00109537 0.00109537 
    Block 317 cell size :
        i : 1
        j : 6.2514e-05 6.2514e-05 7.07107e-05 7.07107e-05 
        k : 0.00124171 0.00124171 0.00124075 0.00124075 
    Block 318 cell size :
        i : 1
        j : 7.07107e-05 7.07107e-05 7.77817e-05 7.77817e-05 
        k : 0.00141239 0.00141239 0.0014123 0.0014123 
    Block 319 cell size :
        i : 1
        j : 0.00119889 0.00119889 0.00119969 0.00119969 
        k : 7.05762e-05 7.05762e-05 7.87718e-05 7.87718e-05 
    Block 320 cell size :
        i : 1
        j : 0.00105759 0.00105759 0.00105748 0.00105748 
        k : 7.67919e-05 7.67919e-05 8.3863e-05 8.3863e-05 
    Block 321 cell size :
        i : 1
        j : 0.000930683 0.000930683 0.000929349 0.000929349 
        k : 8.28734e-05 8.28734e-05 9.07965e-05 9.07965e-05 
    Block 322 cell size :
        i : 1
        j : 0.000821751 0.000821751 0.000820731 0.000820731 
        k : 8.78237e-05 8.78237e-05 9.88585e-05 9.88585e-05 
    Block 323 cell size :
        i : 1
        j : 0.000638003 0.000638003 0.000636419 0.000636419 
        k : 9.9985e-05 9.9985e-05 0.000112009 0.000112009 
    Block 324 cell size :
        i : 1
        j : 0.000723923 0.000723923 0.000722497 0.000722497 
        k : 9.39042e-05 9.39042e-05 0.000105929 0.000105929 
    Block 325 cell size :
        i : 1
        j : 7.77817e-05 7.77817e-05 8.47172e-05 8.47172e-05 
        k : 0.00160143 0.00160143 0.00160235 0.00160235 
    Block 326 cell size :
        i : 1
        j : 0.00136251 0.00136251 0.00136246 0.00136246 
        k : 7.87718e-05 7.87718e-05 8.58429e-05 8.58429e-05 
    Block 327 cell size :
        i : 1
        j : 8.47172e-05 8.47172e-05 8.88144e-05 8.88144e-05 
        k : 0.00181804 0.00181804 0.00181759 0.00181759 
    Block 328 cell size :
        i : 1
        j : 0.00175391 0.00175391 0.00175504 0.00175504 
        k : 7.76466e-05 7.76466e-05 8.3863e-05 8.3863e-05 
    Block 329 cell size :
        i : 1
        j : 8.88144e-05
        k : 0.00203989
    Block 330 cell size :
        i : 1
        j : 0.0019956 0.0019956 0.00199419 0.00199419 
        k : 8.3863e-05 8.3863e-05 8.67006e-05 8.67006e-05 
    Block 331 cell size :
        i : 1
        j : 0.00218808 0.00218808 0.0021888 0.0021888 
        k : 8.67006e-05 8.67006e-05 8.88144e-05 8.88144e-05 
    Block 332 cell size :
        i : 1
        j : 0.00154704 0.00154704 0.00154701 0.00154701 
        k : 8.58429e-05 8.58429e-05 9.29139e-05 9.29139e-05 
    Block 333 cell size :
        i : 1
        j : 3.23883e-05 3.23883e-05 3.73363e-05 3.73363e-05 
        k : 0.000660113 0.000660113 0.000660753 0.000660753 
    Block 334 cell size :
        i : 1
        j : 4.34166e-05 4.34166e-05 4.94975e-05 4.94975e-05 
        k : 0.000747083 0.000747083 0.000746813 0.000746813 
    Block 335 cell size :
        i : 1
        j : 0.00057842 0.00057842 0.000584365 0.000584365 
        k : 3.20156e-05 3.20156e-05 2.86531e-05 2.86531e-05 
    Block 336 cell size :
        i : 1
        j : 0.000581529 0.000581529 0.000584501 0.000584501 
        k : 2.86531e-05 2.86531e-05 2.7313e-05 2.7313e-05 
    Block 337 cell size :
        i : 1
        j : 0.000582658 0.000582658 0.000584501 0.000584501 
        k : 2.7313e-05 2.7313e-05 2.75136e-05 2.75136e-05 
    Block 338 cell size :
        i : 1
        j : 0.000582658 0.000582658 0.000584501 0.000584501 
        k : 2.75136e-05 2.75136e-05 2.78927e-05 2.78927e-05 
    Block 339 cell size :
        i : 1
        j : 2.41868e-05 2.41868e-05 2.72947e-05 2.72947e-05 
        k : 0.000384267 0.000384267 0.000383678 0.000383678 
    Block 340 cell size :
        i : 1
        j : 3.20156e-05 3.20156e-05 2.51794e-05 2.51794e-05 
        k : 0.000393451 0.000393451 0.000415924 0.000415924 
    Block 341 cell size :
        i : 1
        j : 0.00058252 0.00058252 0.000584501 0.000584501 
        k : 2.78927e-05 2.78927e-05 2.74591e-05 2.74591e-05 
    Block 342 cell size :
        i : 1
        j : 0.000582383 0.000582383 0.000585355 0.000585355 
        k : 2.74591e-05 2.74591e-05 2.7074e-05 2.7074e-05 
    Block 343 cell size :
        i : 1
        j : 0.00058351 0.00058351 0.000584501 0.000584501 
        k : 2.7074e-05 2.7074e-05 2.70185e-05 2.70185e-05 
    Block 344 cell size :
        i : 1
        j : 0.00058351 0.00058351 0.000584501 0.000584501 
        k : 2.70185e-05 2.70185e-05 2.7e-05 2.7e-05 
    Block 345 cell size :
        i : 1
        j : 0.00058351 0.00058351 0.000584501 0.000584501 
        k : 2.7e-05 2.7e-05 2.70185e-05 2.70185e-05 
    Block 346 cell size :
        i : 1
        j : 0.00148352 0.00148352 0.00148365 0.00148365 
        k : 6.8593e-05 6.8593e-05 7.46726e-05 7.46726e-05 
    Block 347 cell size :
        i : 1
        j : 0.00130693 0.00130693 0.0013059 0.0013059 
        k : 7.56637e-05 7.56637e-05 8.26075e-05 8.26075e-05 
    Block 348 cell size :
        i : 1
        j : 8.07527e-05 8.07527e-05 8.58429e-05 8.58429e-05 
        k : 0.00166236 0.00166236 0.00166203 0.00166203 
    Block 349 cell size :
        i : 1
        j : 8.58429e-05 8.58429e-05 8.88144e-05 8.88144e-05 
        k : 0.00188294 0.00188294 0.00188334 0.00188334 
    Block 350 cell size :
        i : 1
        j : 0.00203323 0.00203323 0.0020331 0.0020331 
        k : 8.78237e-05 8.78237e-05 8.88144e-05 8.88144e-05 
    Block 351 cell size :
        i : 1
        j : 0.00210436 0.00210436 0.00210493 0.00210493 
        k : 8.47172e-05 8.47172e-05 8.78237e-05 8.78237e-05 
    Block 352 cell size :
        i : 1
        j : 0.00168617 0.00168617 0.00168645 0.00168645 
        k : 7.46726e-05 7.46726e-05 7.97621e-05 7.97621e-05 
    Block 353 cell size :
        i : 1
        j : 0.00191612 0.00191612 0.00191542 0.00191542 
        k : 7.97621e-05 7.97621e-05 8.47172e-05 8.47172e-05 
    Block 354 cell size :
        i : 1
        j : 8.78237e-05 8.78237e-05 9.58853e-05 9.58853e-05 
        k : 0.00146088
    Block 355 cell size :
        i : 1
        j : 0.000121495 0.000121495 0.000135636 0.000135636 
        k : 0.00076899 0.00076899 0.000767831 0.000767831 
    Block 356 cell size :
        i : 1
        j : 0.000113283 0.000113283 0.000127279 0.000127279 
        k : 0.000876855 0.000876855 0.000876879 0.000876879 
    Block 357 cell size :
        i : 1
        j : 0.000107056 0.000107056 0.000121198 0.000121198 
        k : 0.000997214 0.000997214 0.000996444 0.000996444 
    Block 358 cell size :
        i : 1
        j : 9.39042e-05 9.39042e-05 0.000105076 0.000105076 
        k : 0.00128785 0.00128785 0.00128713 0.00128713 
    Block 359 cell size :
        i : 1
        j : 9.9985e-05 9.9985e-05 0.000113137 0.000113137 
        k : 0.00113126 0.00113126 0.0011306 0.0011306 
    Block 360 cell size :
        i : 1
        j : 0.000555226 0.000555226 0.000559325 0.000559325 
        k : 8.0399e-05 8.0399e-05 7.91012e-05 7.91012e-05 
    Block 361 cell size :
        i : 1
        j : 0.000558335 0.000558335 0.000561307 0.000561307 
        k : 7.91012e-05 7.91012e-05 7.90063e-05 7.90063e-05 
    Block 362 cell size :
        i : 1
        j : 0.000561584 0.000561584 0.000564555 0.000564555 
        k : 7.90063e-05 7.90063e-05 7.90253e-05 7.90253e-05 
    Block 363 cell size :
        i : 1
        j : 0.000568016 0.000568016 0.000568694 0.000568694 
        k : 8.22192e-05 8.22192e-05 8.42912e-05 8.42912e-05 
    Block 364 cell size :
        i : 1
        j : 0.000564838 0.000564838 0.000565828 0.000565828 
        k : 7.90253e-05 7.90253e-05 7.90569e-05 7.90569e-05 
    Block 365 cell size :
        i : 1
        j : 0.000565426 0.000565426 0.000567951 0.000567951 
        k : 7.90569e-05 7.90569e-05 8.22192e-05 8.22192e-05 
    Block 366 cell size :
        i : 1
        j : 0.000568987 0.000568987 0.00056932 0.00056932 
        k : 8.42912e-05 8.42912e-05 8.83629e-05 8.83629e-05 
    Block 367 cell size :
        i : 1
        j : 0.000605706 0.000605706 0.000606806 0.000606806 
        k : 8.83629e-05 8.83629e-05 9.35361e-05 9.35361e-05 
    Block 368 cell size :
        i : 1
        j : 0.000889089 0.000889089 0.000888743 0.000888743 
        k : 7.85175e-05 7.85175e-05 8.65794e-05 8.65794e-05 
    Block 369 cell size :
        i : 1
        j : 0.000780836 0.000780836 0.000782387 0.000782387 
        k : 8.54751e-05 8.54751e-05 9.3771e-05 9.3771e-05 
    Block 370 cell size :
        i : 1
        j : 0.000688387 0.000688387 0.000688713 0.000688713 
        k : 9.35361e-05 9.35361e-05 0.000102703 0.000102703 
    Block 371 cell size :
        i : 1
        j : 0.00114768 0.00114768 0.00114742 0.00114742 
        k : 8.07527e-05 8.07527e-05 8.88144e-05 8.88144e-05 
    Block 372 cell size :
        i : 1
        j : 0.0010119 0.0010119 0.00101221 0.00101221 
        k : 8.65794e-05 8.65794e-05 9.67471e-05 9.67471e-05 
    Block 373 cell size :
        i : 1
        j : 0.000552819 0.000552819 0.000557624 0.000557624 
        k : 8.00625e-05 8.00625e-05 8.0399e-05 8.0399e-05 
    Block 374 cell size :
        i : 1
        j : 0.000549925 0.000549925 0.000555541 0.000555541 
        k : 7.93095e-05 7.93095e-05 8.00625e-05 8.00625e-05 
    Block 375 cell size :
        i : 1
        j : 0.000550553 0.000550553 0.000558474 0.000558474 
        k : 5.91692e-05 5.91692e-05 5.55428e-05 5.55428e-05 
    Block 376 cell size :
        i : 1
        j : 0.000549613 0.000549613 0.000555239 0.000555239 
        k : 6.53911e-05 6.53911e-05 6.5146e-05 6.5146e-05 
    Block 377 cell size :
        i : 1
        j : 0.0005486 0.0005486 0.000554033 0.000554033 
        k : 7.81089e-05 7.81089e-05 7.93095e-05 7.93095e-05 
    Block 378 cell size :
        i : 1
        j : 0.00054293 0.00054293 0.000551983 0.000551983 
        k : 6.5e-05 6.5e-05 5.91692e-05 5.91692e-05 
    Block 379 cell size :
        i : 1
        j : 5.5e-05 5.5e-05 4.04475e-05 4.04475e-05 
        k : 0.000296196 0.000296196 0.000334773 0.000334773 
    Block 380 cell size :
        i : 1
        j : 7.22011e-05 7.22011e-05 0.000119808 0.000119808 
        k : 3.32415e-05 3.32415e-05 3.42345e-05 3.42345e-05 
    Block 381 cell size :
        i : 1
        j : 2.72947e-05 2.72947e-05 3.02655e-05 3.02655e-05 
        k : 0.000384012 0.000384012 0.000384398 0.000384398 
    Block 382 cell size :
        i : 1
        j : 5.65685e-05 5.65685e-05 6.56201e-05 6.56201e-05 
        k : 0.000963301 0.000963301 0.000963378 0.000963378 
    Block 383 cell size :
        i : 1
        j : 6.0531e-05 6.0531e-05 6.8593e-05 6.8593e-05 
        k : 0.000849779 0.000849779 0.000849671 0.000849671 
    Block 384 cell size :
        i : 1
        j : 6.56201e-05 6.56201e-05 7.46726e-05 7.46726e-05 
        k : 0.00109527 0.00109527 0.00109535 0.00109535 
    Block 385 cell size :
        i : 1
        j : 7.46726e-05 7.46726e-05 8.48528e-05 8.48528e-05 
        k : 0.00124249 0.00124249 0.00124171 0.00124171 
    Block 386 cell size :
        i : 1
        j : 8.48528e-05 8.48528e-05 9.39042e-05 9.39042e-05 
        k : 0.00141227 0.00141227 0.00141239 0.00141239 
    Block 387 cell size :
        i : 1
        j : 0.00119931 0.00119931 0.00119889 0.00119889 
        k : 8.3863e-05 8.3863e-05 9.29139e-05 9.29139e-05 
    Block 388 cell size :
        i : 1
        j : 0.00105743 0.00105743 0.00105759 0.00105759 
        k : 9.07965e-05 9.07965e-05 0.000101966 0.000101966 
    Block 389 cell size :
        i : 1
        j : 0.000930658 0.000930658 0.000930683 0.000930683 
        k : 9.88585e-05 9.88585e-05 0.000110027 0.000110027 
    Block 390 cell size :
        i : 1
        j : 0.00082214 0.00082214 0.000821751 0.000821751 
        k : 0.000105929 0.000105929 0.000118089 0.000118089 
    Block 391 cell size :
        i : 1
        j : 0.00072428 0.00072428 0.000723923 0.000723923 
        k : 0.000112009 0.000112009 0.000127279 0.000127279 
    Block 392 cell size :
        i : 1
        j : 9.39042e-05 9.39042e-05 0.000101966 0.000101966 
        k : 0.00160141 0.00160141 0.00160143 0.00160143 
    Block 393 cell size :
        i : 1
        j : 0.00136291 0.00136291 0.00136251 0.00136251 
        k : 9.29139e-05 9.29139e-05 0.000101966 0.000101966 
    Block 394 cell size :
        i : 1
        j : 0.000101966 0.000101966 0.000106066 0.000106066 
        k : 0.00181851 0.00181851 0.00181804 0.00181804 
    Block 395 cell size :
        i : 1
        j : 0.00175477 0.00175477 0.00175391 0.00175391 
        k : 9.29139e-05 9.29139e-05 9.88585e-05 9.88585e-05 
    Block 396 cell size :
        i : 1
        j : 0.000106066 0.000106066 0.000106921 0.000106921 
        k : 0.00203877 0.00203877 0.00203989 0.00203989 
    Block 397 cell size :
        i : 1
        j : 0.00199447 0.00199447 0.0019956 0.0019956 
        k : 9.88585e-05 9.88585e-05 0.000105076 0.000105076 
    Block 398 cell size :
        i : 1
        j : 0.00218935 0.00218935 0.00218808 0.00218808 
        k : 0.000105076 0.000105076 0.000106921 0.000106921 
    Block 399 cell size :
        i : 1
        j : 0.00154757 0.00154757 0.00154704 0.00154704 
        k : 0.000101966 0.000101966 0.000112009 0.000112009 
    Block 400 cell size :
        i : 1
        j : 3.23883e-05 3.23883e-05 3.2249e-05 3.2249e-05 
        k : 3.78021e-05 3.78021e-05 8.42021e-05 8.42021e-05 
    Block 401 cell size :
        i : 1
        j : 3.93192e-05 3.93192e-05 4.34166e-05 4.34166e-05 
        k : 0.000660621 0.000660621 0.000660113 0.000660113 
    Block 402 cell size :
        i : 1
        j : 5.2469e-05 5.2469e-05 6.0531e-05 6.0531e-05 
        k : 0.000747188 0.000747188 0.000747083 0.000747083 
    Block 403 cell size :
        i : 1
        j : 0.000572071 0.000572071 0.00057842 0.00057842 
        k : 3.94081e-05 3.94081e-05 3.36155e-05 3.36155e-05 
    Block 404 cell size :
        i : 1
        j : 0.000577567 0.000577567 0.000581529 0.000581529 
        k : 3.36155e-05 3.36155e-05 3.17805e-05 3.17805e-05 
    Block 405 cell size :
        i : 1
        j : 0.00057997 0.00057997 0.000582658 0.000582658 
        k : 3.17805e-05 3.17805e-05 3.2573e-05 3.2573e-05 
    Block 406 cell size :
        i : 1
        j : 0.000579828 0.000579828 0.000582658 0.000582658 
        k : 3.2573e-05 3.2573e-05 3.27567e-05 3.27567e-05 
    Block 407 cell size :
        i : 1
        j : 2.92746e-05 2.92746e-05 3.2249e-05 3.2249e-05 
        k : 0.000383888 0.000383888 0.000384267 0.000384267 
    Block 408 cell size :
        i : 1
        j : 3.94081e-05 3.94081e-05 2.92746e-05 2.92746e-05 
        k : 0.000364911 0.000364911 0.000393451 0.000393451 
    Block 409 cell size :
        i : 1
        j : 2.92746e-05
        k : 3.5e-05 3.5e-05 7.64003e-05 7.64003e-05 
    Block 410 cell size :
        i : 1
        j : 0.000580539 0.000580539 0.00058252 0.00058252 
        k : 3.27567e-05 3.27567e-05 3.23883e-05 3.23883e-05 
    Block 411 cell size :
        i : 1
        j : 0.000581529 0.000581529 0.000582383 0.000582383 
        k : 3.23883e-05 3.23883e-05 3.32415e-05 3.32415e-05 
    Block 412 cell size :
        i : 1
        j : 0.000581529 0.000581529 0.00058351 0.00058351 
        k : 3.32415e-05 3.32415e-05 3.30606e-05 3.30606e-05 
    Block 413 cell size :
        i : 1
        j : 0.000584501 0.000584501 0.000584365 0.000584365 
        k : 2.70185e-05 2.70185e-05 2.80179e-05 2.80179e-05 
    Block 414 cell size :
        i : 1
        j : 0.00058351 0.00058351 0.000584501 0.000584501 
        k : 2.80179e-05 2.80179e-05 2.80713e-05 2.80713e-05 
    Block 415 cell size :
        i : 1
        j : 0.000581392 0.000581392 0.00058351 0.00058351 
        k : 3.30606e-05 3.30606e-05 3.2e-05 3.2e-05 
    Block 416 cell size :
        i : 1
        j : 0.00058351
        k : 3.2e-05
    Block 417 cell size :
        i : 1
        j : 0.000584638 0.000584638 0.000584501 0.000584501 
        k : 2.80713e-05 2.80713e-05 2.90689e-05 2.90689e-05 
    Block 418 cell size :
        i : 1
        j : 2.51794e-05 2.51794e-05 2.72947e-05 2.72947e-05 
        k : 0.000561894 0.000561894 0.00056117 0.00056117 
    Block 419 cell size :
        i : 1
        j : 0.00148242 0.00148242 0.00148352 0.00148352 
        k : 8.26075e-05 8.26075e-05 8.88144e-05 8.88144e-05 
    Block 420 cell size :
        i : 1
        j : 0.00130733 0.00130733 0.00130693 0.00130693 
        k : 8.88144e-05 8.88144e-05 9.78673e-05 9.78673e-05 
    Block 421 cell size :
        i : 1
        j : 9.58853e-05 9.58853e-05 0.000102956 0.000102956 
        k : 0.00166244 0.00166244 0.00166236 0.00166236 
    Block 422 cell size :
        i : 1
        j : 0.000102956 0.000102956 0.000106066 0.000106066 
        k : 0.00188353 0.00188353 0.00188294 0.00188294 
    Block 423 cell size :
        i : 1
        j : 0.00203224 0.00203224 0.00203323 0.00203323 
        k : 0.000105929 0.000105929 0.000106066 0.000106066 
    Block 424 cell size :
        i : 1
        j : 0.00210492 0.00210492 0.00210436 0.00210436 
        k : 0.000101966 0.000101966 0.000105929 0.000105929 
    Block 425 cell size :
        i : 1
        j : 0.00168619 0.00168619 0.00168617 0.00168617 
        k : 8.88144e-05 8.88144e-05 9.58853e-05 9.58853e-05 
    Block 426 cell size :
        i : 1
        j : 0.00191598 0.00191598 0.00191612 0.00191612 
        k : 9.58853e-05 9.58853e-05 0.000101966 0.000101966 
    Block 427 cell size :
        i : 1
        j : 0.000105076 0.000105076 0.000116108 0.000116108 
        k : 0.00146058 0.00146058 0.00146088 0.00146088 
    Block 428 cell size :
        i : 1
        j : 0.000135636 0.000135636 0.000153584 0.000153584 
        k : 0.000876868 0.000876868 0.000876855 0.000876855 
    Block 429 cell size :
        i : 1
        j : 0.000127279 0.000127279 0.000144392 0.000144392 
        k : 0.00099799 0.00099799 0.000997214 0.000997214 
    Block 430 cell size :
        i : 1
        j : 0.000121198 0.000121198 0.000136195 0.000136195 
        k : 0.00113091 0.00113091 0.00113126 0.00113126 
    Block 431 cell size :
        i : 1
        j : 0.000113137 0.000113137 0.000127142 0.000127142 
        k : 0.00128738 0.00128738 0.00128785 0.00128785 
    Block 432 cell size :
        i : 1
        j : 0.000551264 0.000551264 0.000555226 0.000555226 
        k : 9.54254e-05 9.54254e-05 9.51315e-05 9.51315e-05 
    Block 433 cell size :
        i : 1
        j : 0.000554374 0.000554374 0.000558335 0.000558335 
        k : 9.51315e-05 9.51315e-05 9.50053e-05 9.50053e-05 
    Block 434 cell size :
        i : 1
        j : 0.000558614 0.000558614 0.000561584 0.000561584 
        k : 9.50053e-05 9.50053e-05 9.50211e-05 9.50211e-05 
    Block 435 cell size :
        i : 1
        j : 0.000565533 0.000565533 0.000568016 0.000568016 
        k : 9.81835e-05 9.81835e-05 0.0001014 0.0001014 
    Block 436 cell size :
        i : 1
        j : 0.000562014 0.000562014 0.000564838 0.000564838 
        k : 9.50211e-05 9.50211e-05 9.61301e-05 9.61301e-05 
    Block 437 cell size :
        i : 1
        j : 0.000564742 0.000564742 0.000565426 0.000565426 
        k : 9.61301e-05 9.61301e-05 9.81835e-05 9.81835e-05 
    Block 438 cell size :
        i : 1
        j : 0.000567874 0.000567874 0.000568987 0.000568987 
        k : 0.0001014 0.0001014 0.000106569 0.000106569 
    Block 439 cell size :
        i : 1
        j : 0.000606012 0.000606012 0.000605706 0.000605706 
        k : 0.000106569 0.000106569 0.000113635 0.000113635 
    Block 440 cell size :
        i : 1
        j : 0.000890053 0.000890053 0.000889089 0.000889089 
        k : 9.3771e-05 9.3771e-05 0.000104809 0.000104809 
    Block 441 cell size :
        i : 1
        j : 0.000781916 0.000781916 0.000780836 0.000780836 
        k : 0.000102703 0.000102703 0.000113745 0.000113745 
    Block 442 cell size :
        i : 1
        j : 0.000688184 0.000688184 0.000688387 0.000688387 
        k : 0.000113635 0.000113635 0.000122801 0.000122801 
    Block 443 cell size :
        i : 1
        j : 0.00114752 0.00114752 0.00114768 0.00114768 
        k : 9.67471e-05 9.67471e-05 0.000107912 0.000107912 
    Block 444 cell size :
        i : 1
        j : 0.00101205 0.00101205 0.0010119 0.0010119 
        k : 0.000104809 0.000104809 0.000116966 0.000116966 
    Block 445 cell size :
        i : 1
        j : 0.000545894 0.000545894 0.000552819 0.000552819 
        k : 9.63379e-05 9.63379e-05 9.54254e-05 9.54254e-05 
    Block 446 cell size :
        i : 1
        j : 0.000545312 0.000545312 0.000549925 0.000549925 
        k : 9.53415e-05 9.53415e-05 9.63379e-05 9.63379e-05 
    Block 447 cell size :
        i : 1
        j : 3.5e-05 3.5e-05 7.7801e-05 7.7801e-05 
        k : 3.02655e-05
    Block 448 cell size :
        i : 1
        j : 0.000541646 0.000541646 0.000550553 0.000550553 
        k : 6.94622e-05 6.94622e-05 6.53911e-05 6.53911e-05 
    Block 449 cell size :
        i : 1
        j : 0.000543015 0.000543015 0.000549613 0.000549613 
        k : 7.87909e-05 7.87909e-05 7.81089e-05 7.81089e-05 
    Block 450 cell size :
        i : 1
        j : 0.000541225 0.000541225 0.0005486 0.0005486 
        k : 9.45569e-05 9.45569e-05 9.53415e-05 9.53415e-05 
    Block 451 cell size :
        i : 1
        j : 0.000529646 0.000529646 0.00054293 0.00054293 
        k : 7.92023e-05 7.92023e-05 6.94622e-05 6.94622e-05 
    Block 452 cell size :
        i : 1
        j : 6.5e-05 6.5e-05 4.83735e-05 4.83735e-05 
        k : 0.000249465 0.000249465 0.000296196 0.000296196 
    Block 453 cell size :
        i : 1
        j : 0.000119808 0.000119808 0.000177003 0.000177003 
        k : 4.04475e-05
    Block 454 cell size :
        i : 1
        j : 3.42345e-05 3.42345e-05 3.53553e-05 3.53553e-05 
        k : 0.000384881 0.000384881 0.000384012 0.000384012 
    Block 455 cell size :
        i : 1
        j : 6.8593e-05 6.8593e-05 7.87718e-05 7.87718e-05 
        k : 0.0009642 0.0009642 0.000963301 0.000963301 
    Block 456 cell size :
        i : 1
        j : 7.17008e-05 7.17008e-05 8.28734e-05 8.28734e-05 
        k : 0.000850676 0.000850676 0.000849779 0.000849779 
    Block 457 cell size :
        i : 1
        j : 7.87718e-05 7.87718e-05 8.99444e-05 8.99444e-05 
        k : 0.00109605 0.00109605 0.00109527 0.00109527 
    Block 458 cell size :
        i : 1
        j : 8.99444e-05 8.99444e-05 0.000100975 0.000100975 
        k : 0.00124225 0.00124225 0.00124249 0.00124249 
    Block 459 cell size :
        i : 1
        j : 0.000100975 0.000100975 0.000113 0.000113 
        k : 0.00141187 0.00141187 0.00141227 0.00141227 
    Block 460 cell size :
        i : 1
        j : 0.00120012 0.00120012 0.00119931 0.00119931 
        k : 0.000101966 0.000101966 0.000113 0.000113 
    Block 461 cell size :
        i : 1
        j : 0.00105856 0.00105856 0.00105743 0.00105743 
        k : 0.000110027 0.000110027 0.000122053 0.000122053 
    Block 462 cell size :
        i : 1
        j : 0.000931357 0.000931357 0.000930658 0.000930658 
        k : 0.000118089 0.000118089 0.000132231 0.000132231 
    Block 463 cell size :
        i : 1
        j : 0.000823588 0.000823588 0.00082214 0.00082214 
        k : 0.000127279 0.000127279 0.000143402 0.000143402 
    Block 464 cell size :
        i : 1
        j : 0.000113 0.000113 0.000122188 0.000122188 
        k : 0.0016023 0.0016023 0.00160141 0.00160141 
    Block 465 cell size :
        i : 1
        j : 0.0013627 0.0013627 0.00136291 0.00136291 
        k : 0.000113 0.000113 0.000124169 0.000124169 
    Block 466 cell size :
        i : 1
        j : 0.000122188 0.000122188 0.000127142 0.000127142 
        k : 0.00181786 0.00181786 0.00181851 0.00181851 
    Block 467 cell size :
        i : 1
        j : 0.00175383 0.00175383 0.00175477 0.00175477 
        k : 0.000112009 0.000112009 0.000119218 0.000119218 
    Block 468 cell size :
        i : 1
        j : 0.000127142 0.000127142 0.000128269 0.000128269 
        k : 0.00203962 0.00203962 0.00203877 0.00203877 
    Block 469 cell size :
        i : 1
        j : 0.00199533 0.00199533 0.00199447 0.00199447 
        k : 0.000119218 0.000119218 0.00012516 0.00012516 
    Block 470 cell size :
        i : 1
        j : 0.00218878 0.00218878 0.00218935 0.00218935 
        k : 0.00012516 0.00012516 0.000128269 0.000128269 
    Block 471 cell size :
        i : 1
        j : 0.00154701 0.00154701 0.00154757 0.00154757 
        k : 0.000124169 0.000124169 0.00013336 0.00013336 
    Block 472 cell size :
        i : 1
        j : 3.93192e-05 3.93192e-05 3.94588e-05 3.94588e-05 
        k : 8.42021e-05 8.42021e-05 0.000139201 0.000139201 
    Block 473 cell size :
        i : 1
        j : 4.75184e-05 4.75184e-05 5.2469e-05 5.2469e-05 
        k : 0.000660049 0.000660049 0.000660621 0.000660621 
    Block 474 cell size :
        i : 1
        j : 6.35059e-05 6.35059e-05 7.17008e-05 7.17008e-05 
        k : 0.000748376 0.000748376 0.000747188 0.000747188 
    Block 475 cell size :
        i : 1
        j : 0.000564868 0.000564868 0.000572071 0.000572071 
        k : 4.64004e-05 4.64004e-05 4.08167e-05 4.08167e-05 
    Block 476 cell size :
        i : 1
        j : 0.000571626 0.000571626 0.000577567 0.000577567 
        k : 4.08167e-05 4.08167e-05 3.80789e-05 3.80789e-05 
    Block 477 cell size :
        i : 1
        j : 0.000577292 0.000577292 0.00057997 0.00057997 
        k : 3.80789e-05 3.80789e-05 3.88973e-05 3.88973e-05 
    Block 478 cell size :
        i : 1
        j : 0.000577001 0.000577001 0.000579828 0.000579828 
        k : 3.88973e-05 3.88973e-05 3.90512e-05 3.90512e-05 
    Block 479 cell size :
        i : 1
        j : 3.63456e-05 3.63456e-05 3.94588e-05 3.94588e-05 
        k : 0.000384526 0.000384526 0.000383888 0.000383888 
    Block 480 cell size :
        i : 1
        j : 4.64004e-05 4.64004e-05 3.53553e-05 3.53553e-05 
        k : 0.000332297 0.000332297 0.000364911 0.000364911 
    Block 481 cell size :
        i : 1
        j : 3.63456e-05 3.63456e-05 3.53553e-05 3.53553e-05 
        k : 7.64003e-05 7.64003e-05 0.000127004 0.000127004 
    Block 482 cell size :
        i : 1
        j : 0.000577707 0.000577707 0.000580539 0.000580539 
        k : 3.90512e-05 3.90512e-05 3.94588e-05 3.94588e-05 
    Block 483 cell size :
        i : 1
        j : 0.000579548 0.000579548 0.000581529 0.000581529 
        k : 3.94588e-05 3.94588e-05 3.92046e-05 3.92046e-05 
    Block 484 cell size :
        i : 1
        j : 0.000579548 0.000579548 0.000581529 0.000581529 
        k : 3.92046e-05 3.92046e-05 3.90512e-05 3.90512e-05 
    Block 485 cell size :
        i : 1
        j : 0.000582658 0.000582658 0.000584501 0.000584501 
        k : 3.2e-05 3.2e-05 3.30606e-05 3.30606e-05 
    Block 486 cell size :
        i : 1
        j : 0.00058351
        k : 3.30606e-05
    Block 487 cell size :
        i : 1
        j : 0.000580402 0.000580402 0.000581392 0.000581392 
        k : 3.90512e-05 3.90512e-05 3.90128e-05 3.90128e-05 
    Block 488 cell size :
        i : 1
        j : 0.000581529 0.000581529 0.00058351 0.00058351 
        k : 3.90128e-05
    Block 489 cell size :
        i : 1
        j : 0.000585629 0.000585629 0.000586482 0.000586482 
        k : 2.90689e-05 2.90689e-05 3.01496e-05 3.01496e-05 
    Block 490 cell size :
        i : 1
        j : 0.000583788 0.000583788 0.000584638 0.000584638 
        k : 3.30606e-05 3.30606e-05 3.41321e-05 3.41321e-05 
    Block 491 cell size :
        i : 1
        j : 3.02655e-05 3.02655e-05 3.2249e-05 3.2249e-05 
        k : 0.000561634 0.000561634 0.000561894 0.000561894 
    Block 492 cell size :
        i : 1
        j : 2.72947e-05 2.72947e-05 3.04138e-05 3.04138e-05 
        k : 0.000635575 0.000635575 0.000634988 0.000634988 
    Block 493 cell size :
        i : 1
        j : 0.00148294 0.00148294 0.00148242 0.00148242 
        k : 9.78673e-05 9.78673e-05 0.000107912 0.000107912 
    Block 494 cell size :
        i : 1
[...]
        k : 0.000726158 0.000726158 0.000791404 0.000791404 
    Block 16100 cell size :
        i : 1
        j : 0.000871574 0.000871574 0 0 
        k : 0.000825742 0.000825742 0.000894439 0.000894439 
    Block 16101 cell size :
        i : 1
        j : 0.000734903 0.000734903 0 0 
        k : 0.000818426 0.000818426 0.000894439 0.000894439 
    Block 16102 cell size :
        i : 1
        j : 0.000662599 0.000662599 0 0 
        k : 0.000527159 0.000527159 0.000757327 0.000757327 
    Block 16103 cell size :
        i : 1
        j : 0.000757327 0.000757327 0 0 
        k : 0.000702866 0.000702866 0.00080599 0.00080599 
    Block 16104 cell size :
        i : 1
        j : 0.000654782 0.000654782 0 0 
        k : 0.000619969 0.000619969 0.000705839 0.000705839 
    Block 16105 cell size :
        i : 1
        j : 0.00063238 0.00063238 0 0 
        k : 0.000527159 0.000527159 0.000654782 0.000654782 
    Block 16106 cell size :
        i : 1
        j : 0.000693527 0.000693527 0 0 
        k : 0.000696646 0.000696646 0.000792187 0.000792187 
    Block 16107 cell size :
        i : 1
        j : 0.000608911 0.000608911 0 0 
        k : 0.000705839 0.000705839 0.000792187 0.000792187 
    Block 16108 cell size :
        i : 1
        j : 0.000643183 0.000643183 0 0 
        k : 0.00076653 0.00076653 0.000786308 0.000786308 
    Block 16109 cell size :
        i : 1
        j : 0.000618401 0.000618401 0 0 
        k : 0.000696646 0.000696646 0.000786308 0.000786308 
    Block 16110 cell size :
        i : 1
        j : 0.000648706 0.000648706 0 0 
        k : 0.000639426 0.000639426 0.000783036 0.000783036 
    Block 16111 cell size :
        i : 1
        j : 0.000648706 0.000648706 0 0 
        k : 0.000551852 0.000551852 0.00076653 0.00076653 
    Block 16112 cell size :
        i : 1
        j : 0.000374542 0.000374542 0 0 
        k : 0.00069229 0.00069229 0.000879659 0.000879659 
    Block 16113 cell size :
        i : 1
        j : 0.000374542 0.000374542 0 0 
        k : 0.000603709 0.000603709 0.000783036 0.000783036 
    Block 16114 cell size :
        i : 1
        j : 0.000769353 0.000769353 0 0 
        k : 0.000641078 0.000641078 0.000957478 0.000957478 
    Block 16115 cell size :
        i : 1
        j : 0.000769353 0.000769353 0 0 
        k : 0.000726158 0.000726158 0.00095893 0.00095893 
    Block 16116 cell size :
        i : 1
        j : 0.000710665 0.000710665 0 0 
        k : 0.000553399 0.000553399 0.000716453 0.000716453 
    Block 16117 cell size :
        i : 1
        j : 0.000710665 0.000710665 0 0 
        k : 0.000641078 0.000641078 0.000816189 0.000816189 
    Block 16118 cell size :
        i : 1
        j : 0.000545587 0.000545587 0 0 
        k : 0.000518811 0.000518811 0.000576784 0.000576784 
    Block 16119 cell size :
        i : 1
        j : 0.000517042 0.000517042 0 0 
        k : 0.000540734 0.000540734 0.000545587 0.000545587 
    Block 16120 cell size :
        i : 1
        j : 0.000540734 0.000540734 0 0 
        k : 0.000553399 0.000553399 0.000641879 0.000641879 
    Block 16121 cell size :
        i : 1
        j : 0.000454705 0.000454705 0 0 
        k : 0.000473179 0.000473179 0.000518811 0.000518811 
    Block 16122 cell size :
        i : 1
        j : 0.000385088 0.000385088 0 0 
        k : 0.000505253 0.000505253 0.000568426 0.000568426 
    Block 16123 cell size :
        i : 1
        j : 0.000473179 0.000473179 0 0 
        k : 0.000317762 0.000317762 0.000505253 0.000505253 
    Block 16124 cell size :
        i : 1
        j : 0.00029638 0.00029638 0 0 
        k : 0.000503627 0.000503627 0.000636834 0.000636834 
    Block 16125 cell size :
        i : 1
        j : 0.000568426 0.000568426 0 0 
        k : 0.000308002 0.000308002 0.000636834 0.000636834 
    Block 16126 cell size :
        i : 1
        j : 3.08058e-05 3.08058e-05 0 0 
        k : 0.00029638 0.00029638 0.000315886 0.000315886 
    Block 16127 cell size :
        i : 1
        j : 0.000481007 0.000481007 0 0 
        k : 0.000669032 0.000669032 0.000702866 0.000702866 
    Block 16128 cell size :
        i : 1
        j : 0.000669032 0.000669032 0 0 
        k : 0.000510957 0.000510957 0.000681393 0.000681393 
    Block 16129 cell size :
        i : 1
        j : 0.000681393 0.000681393 0 0 
        k : 0.000666148 0.000666148 0.000808802 0.000808802 
    Block 16130 cell size :
        i : 1
        j : 0.000644748 0.000644748 0 0 
        k : 0.000663868 0.000663868 0.000666148 0.000666148 
    Block 16131 cell size :
        i : 1
        j : 0.000663868 0.000663868 0 0 
        k : 0.000822621 0.000822621 0.000882961 0.000882961 
    Block 16132 cell size :
        i : 1
        j : 0.000511236 0.000511236 0 0 
        k : 0.000713732 0.000713732 0.000822621 0.000822621 
    Block 16133 cell size :
        i : 1
        j : 0.000713732 0.000713732 0 0 
        k : 0.00055461 0.00055461 0.000731208 0.000731208 
    Block 16134 cell size :
        i : 1
        j : 0.000825742 0.000825742 0 0 
        k : 0.000731208 0.000731208 0.000846171 0.000846171 
    Block 16135 cell size :
        i : 1
        j : 0.000524745 0.000524745 0 0 
        k : 0.000826087 0.000826087 0.000846171 0.000846171 
    Block 16136 cell size :
        i : 1
        j : 0.000826087 0.000826087 0 0 
        k : 0.000534283 0.000534283 0.00095893 0.00095893 
    Block 16137 cell size :
        i : 1
        j : 0.00063238 0.00063238 0 0 
        k : 0.000551928 0.000551928 0.000678476 0.000678476 
    Block 16138 cell size :
        i : 1
        j : 0.000528002 0.000528002 0 0 
        k : 0.000481007 0.000481007 0.000678476 0.000678476 
    Block 16139 cell size :
        i : 1
        j : 0.000608911 0.000608911 0 0 
        k : 0.00063415 0.00063415 0.00069317 0.00069317 
    Block 16140 cell size :
        i : 1
        j : 0.000602876 0.000602876 0 0 
        k : 0.000551928 0.000551928 0.00069317 0.00069317 
    Block 16141 cell size :
        i : 1
        j : 0.000618401 0.000618401 0 0 
        k : 0.000653759 0.000653759 0.000733638 0.000733638 
    Block 16142 cell size :
        i : 1
        j : 0.000565407 0.000565407 0 0 
        k : 0.00063415 0.00063415 0.000733638 0.000733638 
    Block 16143 cell size :
        i : 1
        j : 0.000574739 0.000574739 0 0 
        k : 0.000551852 0.000551852 0.0007213 0.0007213 
    Block 16144 cell size :
        i : 1
        j : 0.000574739 0.000574739 0 0 
        k : 0.000494928 0.000494928 0.000653759 0.000653759 
    Block 16145 cell size :
        i : 1
        j : 0.000359184 0.000359184 0 0 
        k : 0.000603709 0.000603709 0.000768912 0.000768912 
    Block 16146 cell size :
        i : 1
        j : 0.000359184 0.000359184 0 0 
        k : 0.000542595 0.000542595 0.0007213 0.0007213 
    Block 16147 cell size :
        i : 1
        j : 0.000503086 0.000503086 0 0 
        k : 0.000816189 0.000816189 0.000869043 0.000869043 
    Block 16148 cell size :
        i : 1
        j : 0.000869043 0.000869043 0 0 
        k : 0.000534283 0.000534283 0.000904129 0.000904129 
    Block 16149 cell size :
        i : 1
        j : 0.000482573 0.000482573 0 0 
        k : 0.000454705 0.000454705 0.000630773 0.000630773 
    Block 16150 cell size :
        i : 1
        j : 0.000503086 0.000503086 0 0 
        k : 0.000681385 0.000681385 0.000777196 0.000777196 
    Block 16151 cell size :
        i : 1
        j : 0.000630773 0.000630773 0 0 
        k : 0.000641879 0.000641879 0.000777196 0.000777196 
    Block 16152 cell size :
        i : 1
        j : 0.000317762 0.000317762 0 0 
        k : 0.00040942 0.00040942 0.000473932 0.000473932 
    Block 16153 cell size :
        i : 1
        j : 0.000386999 0.000386999 0 0 
        k : 0.00040942 0.00040942 0.000482573 0.000482573 
    Block 16154 cell size :
        i : 1
        j : 0.000372671 0.000372671 0 0 
        k : 0.000308002 0.000308002 0.000394463 0.000394463 
    Block 16155 cell size :
        i : 1
        j : 0.000332363 0.000332363 0 0 
        k : 0.000394463 0.000394463 0.000473932 0.000473932 
    Block 16156 cell size :
        i : 1
        j : 0.000264613 0.000264613 0 0 
        k : 0.000226433 0.000226433 0.000372671 0.000372671 
    Block 16157 cell size :
        i : 1
        j : 0.000315886 0.000315886 0 0 
        k : 0.000226433 0.000226433 0.000487229 0.000487229 
    Block 16158 cell size :
        i : 1
        j : 0.000528002 0.000528002 0 0 
        k : 0.000517178 0.000517178 0.000565679 0.000565679 
    Block 16159 cell size :
        i : 1
        j : 0.000510957 0.000510957 0 0 
        k : 0.000565679 0.000565679 0.000671275 0.000671275 
    Block 16160 cell size :
        i : 1
        j : 0.000671275 0.000671275 0 0 
        k : 0.000579728 0.000579728 0.000812422 0.000812422 
    Block 16161 cell size :
        i : 1
        j : 0.000732129 0.000732129 0 0 
        k : 0.000644748 0.000644748 0.000812422 0.000812422 
    Block 16162 cell size :
        i : 1
        j : 0.000732129 0.000732129 0 0 
        k : 0.000503433 0.000503433 0.000733234 0.000733234 
    Block 16163 cell size :
        i : 1
        j : 0.000609946 0.000609946 0 0 
        k : 0.000511236 0.000511236 0.000733234 0.000733234 
    Block 16164 cell size :
        i : 1
        j : 0.000609946 0.000609946 0 0 
        k : 0.000551675 0.000551675 0.000641667 0.000641667 
    Block 16165 cell size :
        i : 1
        j : 0.00055461 0.00055461 0 0 
        k : 0.000641667 0.000641667 0.000730707 0.000730707 
    Block 16166 cell size :
        i : 1
        j : 0.000647386 0.000647386 0 0 
        k : 0.000683779 0.000683779 0.000904129 0.000904129 
    Block 16167 cell size :
        i : 1
        j : 0.000730707 0.000730707 0 0 
        k : 0.000609295 0.000609295 0.000770647 0.000770647 
    Block 16168 cell size :
        i : 1
        j : 0.000647386 0.000647386 0 0 
        k : 0.000524745 0.000524745 0.000770647 0.000770647 
    Block 16169 cell size :
        i : 1
        j : 0.000602876 0.000602876 0 0 
        k : 0.000566189 0.000566189 0.000702198 0.000702198 
    Block 16170 cell size :
        i : 1
        j : 0.000668554 0.000668554 0 0 
        k : 0.000517178 0.000517178 0.000702198 0.000702198 
    Block 16171 cell size :
        i : 1
        j : 0.000565407 0.000565407 0 0 
        k : 0.000568802 0.000568802 0.000614359 0.000614359 
    Block 16172 cell size :
        i : 1
        j : 0.000495263 0.000495263 0 0 
        k : 0.000566189 0.000566189 0.000614359 0.000614359 
    Block 16173 cell size :
        i : 1
        j : 0.000505356 0.000505356 0 0 
        k : 0.000494928 0.000494928 0.000612945 0.000612945 
    Block 16174 cell size :
        i : 1
        j : 0.000505356 0.000505356 0 0 
        k : 0.000470227 0.000470227 0.000568802 0.000568802 
    Block 16175 cell size :
        i : 1
        j : 0.000296061 0.000296061 0 0 
        k : 0.000542595 0.000542595 0.000676436 0.000676436 
    Block 16176 cell size :
        i : 1
        j : 0.000296061 0.000296061 0 0 
        k : 0.000483923 0.000483923 0.000612945 0.000612945 
    Block 16177 cell size :
        i : 1
        j : 0.000546879 0.000546879 0 0 
        k : 0.000676311 0.000676311 0.000681385 0.000681385 
    Block 16178 cell size :
        i : 1
        j : 0.000682141 0.000682141 0 0 
        k : 0.000546879 0.000546879 0.000683779 0.000683779 
    Block 16179 cell size :
        i : 1
        j : 0.000386999 0.000386999 0 0 
        k : 0.000528894 0.000528894 0.000542797 0.000542797 
    Block 16180 cell size :
        i : 1
        j : 0.000511434 0.000511434 0 0 
        k : 0.000528894 0.000528894 0.000676311 0.000676311 
    Block 16181 cell size :
        i : 1
        j : 0.000332363 0.000332363 0 0 
        k : 0.000431894 0.000431894 0.000487369 0.000487369 
    Block 16182 cell size :
        i : 1
        j : 0.000378319 0.000378319 0 0 
        k : 0.000431894 0.000431894 0.000542797 0.000542797 
    Block 16183 cell size :
        i : 1
        j : 0.000264613 0.000264613 0 0 
        k : 0.000393309 0.000393309 0.00051593 0.00051593 
    Block 16184 cell size :
        i : 1
        j : 0.000268062 0.000268062 0 0 
        k : 0.000393309 0.000393309 0.000487369 0.000487369 
    Block 16185 cell size :
        i : 1
        j : 0.000668554 0.000668554 0 0 
        k : 0.000561514 0.000561514 0.000755924 0.000755924 
    Block 16186 cell size :
        i : 1
        j : 0.000646933 0.000646933 0 0 
        k : 0.000579728 0.000579728 0.000755924 0.000755924 
    Block 16187 cell size :
        i : 1
        j : 0.000646933 0.000646933 0 0 
        k : 0.000599914 0.000599914 0.000770746 0.000770746 
    Block 16188 cell size :
        i : 1
        j : 0.000689701 0.000689701 0 0 
        k : 0.000503433 0.000503433 0.000770746 0.000770746 
    Block 16189 cell size :
        i : 1
        j : 0.000689701 0.000689701 0 0 
        k : 0.000546202 0.000546202 0.000742626 0.000742626 
    Block 16190 cell size :
        i : 1
        j : 0.000634289 0.000634289 0 0 
        k : 0.000551675 0.000551675 0.000742626 0.000742626 
    Block 16191 cell size :
        i : 1
        j : 0.000585581 0.000585581 0 0 
        k : 0.000601879 0.000601879 0.000682141 0.000682141 
    Block 16192 cell size :
        i : 1
        j : 0.000634289 0.000634289 0 0 
        k : 0.000545059 0.000545059 0.000652966 0.000652966 
    Block 16193 cell size :
        i : 1
        j : 0.000585581 0.000585581 0 0 
        k : 0.000609295 0.000609295 0.000652966 0.000652966 
    Block 16194 cell size :
        i : 1
        j : 0.000576508 0.000576508 0 0 
        k : 0.000495263 0.000495263 0.000581138 0.000581138 
    Block 16195 cell size :
        i : 1
        j : 0.000476067 0.000476067 0 0 
        k : 0.000561514 0.000561514 0.000576508 0.000576508 
    Block 16196 cell size :
        i : 1
        j : 0.000512563 0.000512563 0 0 
        k : 0.000470227 0.000470227 0.000580954 0.000580954 
    Block 16197 cell size :
        i : 1
        j : 0.000512563 0.000512563 0 0 
        k : 0.00045826 0.00045826 0.000581138 0.000581138 
    Block 16198 cell size :
        i : 1
        j : 0.000275182 0.000275182 0 0 
        k : 0.000483923 0.000483923 0.000591486 0.000591486 
    Block 16199 cell size :
        i : 1
        j : 0.000275182 0.000275182 0 0 
        k : 0.000470737 0.000470737 0.000580954 0.000580954 
    Block 16200 cell size :
        i : 1
        j : 0.000511434 0.000511434 0 0 
        k : 0.000519573 0.000519573 0.000530137 0.000530137 
    Block 16201 cell size :
        i : 1
        j : 0.000568734 0.000568734 0 0 
        k : 0.000519573 0.000519573 0.000601879 0.000601879 
    Block 16202 cell size :
        i : 1
        j : 0.000378319 0.000378319 0 0 
        k : 0.000416501 0.000416501 0.000453228 0.000453228 
    Block 16203 cell size :
        i : 1
        j : 0.000449751 0.000449751 0 0 
        k : 0.000416501 0.000416501 0.000530137 0.000530137 
    Block 16204 cell size :
        i : 1
        j : 0.000268062 0.000268062 0 0 
        k : 0.000438056 0.000438056 0.00052445 0.00052445 
    Block 16205 cell size :
        i : 1
        j : 0.000220239 0.000220239 0 0 
        k : 0.000438056 0.000438056 0.000453228 0.000453228 
    Block 16206 cell size :
        i : 1
        j : 0.000476067 0.000476067 0 0 
        k : 0.000618535 0.000618535 0.000623566 0.000623566 
    Block 16207 cell size :
        i : 1
        j : 0.000449605 0.000449605 0 0 
        k : 0.000599914 0.000599914 0.000623566 0.000623566 
    Block 16208 cell size :
        i : 1
        j : 0.00056749 0.00056749 0 0 
        k : 0.000449605 0.000449605 0.000574757 0.000574757 
    Block 16209 cell size :
        i : 1
        j : 0.000503954 0.000503954 0 0 
        k : 0.000546202 0.000546202 0.00056749 0.00056749 
    Block 16210 cell size :
        i : 1
        j : 0.000503954 0.000503954 0 0 
        k : 0.000488102 0.000488102 0.000505943 0.000505943 
    Block 16211 cell size :
        i : 1
        j : 0.000505943 0.000505943 0 0 
        k : 0.00053627 0.00053627 0.000545059 0.000545059 
    Block 16212 cell size :
        i : 1
        j : 0.00053627 0.00053627 0 0 
        k : 0.000550553 0.000550553 0.000568734 0.000568734 
    Block 16213 cell size :
        i : 1
        j : 0.000477678 0.000477678 0 0 
        k : 0.00045826 0.00045826 0.000558951 0.000558951 
    Block 16214 cell size :
        i : 1
        j : 0.000477678 0.000477678 0 0 
        k : 0.000453486 0.000453486 0.000618535 0.000618535 
    Block 16215 cell size :
        i : 1
        j : 0.000250928 0.000250928 0 0 
        k : 0.000470737 0.000470737 0.000560544 0.000560544 
    Block 16216 cell size :
        i : 1
        j : 0.000250928 0.000250928 0 0 
        k : 0.00046827 0.00046827 0.000558951 0.000558951 
    Block 16217 cell size :
        i : 1
        j : 0.000449751 0.000449751 0 0 
        k : 0.000475195 0.000475195 0.00055933 0.00055933 
    Block 16218 cell size :
        i : 1
        j : 0.000467796 0.000467796 0 0 
        k : 0.000475195 0.000475195 0.000550553 0.000550553 
    Block 16219 cell size :
        i : 1
        j : 0.000220239 0.000220239 0 0 
        k : 0.000500977 0.000500977 0.000532508 0.000532508 
    Block 16220 cell size :
        i : 1
        j : 0.000198323 0.000198323 0 0 
        k : 0.000500977 0.000500977 0.00055933 0.00055933 
    Block 16221 cell size :
        i : 1
        j : 0.000415496 0.000415496 0 0 
        k : 0.000453486 0.000453486 0.000568592 0.000568592 
    Block 16222 cell size :
        i : 1
        j : 0.000415496 0.000415496 0 0 
        k : 0.000454314 0.000454314 0.000574757 0.000574757 
    Block 16223 cell size :
        i : 1
        j : 0.000377053 0.000377053 0 0 
        k : 0.000454314 0.000454314 0.000550572 0.000550572 
    Block 16224 cell size :
        i : 1
        j : 0.000377053 0.000377053 0 0 
        k : 0.000463168 0.000463168 0.000488102 0.000488102 
    Block 16225 cell size :
        i : 1
        j : 0.000467796 0.000467796 0 0 
        k : 0.000463168 0.000463168 0.000544002 0.000544002 
    Block 16226 cell size :
        i : 1
        j : 0.000241868 0.000241868 0 0 
        k : 0.00046827 0.00046827 0.00055536 0.00055536 
    Block 16227 cell size :
        i : 1
        j : 0.000241868 0.000241868 0 0 
        k : 0.00047139 0.00047139 0.000568592 0.000568592 
    Block 16228 cell size :
        i : 1
        j : 0.000198323 0.000198323 0 0 
        k : 0.00046879 0.00046879 0.000538591 0.000538591 
    Block 16229 cell size :
        i : 1
        j : 0.000203002 0.000203002 0 0 
        k : 0.00046879 0.00046879 0.000544002 0.000544002 
    Block 16230 cell size :
        i : 1
        j : 0.000209172 0.000209172 0 0 
        k : 0.00047139 0.00047139 0.000550245 0.000550245 
    Block 16231 cell size :
        i : 1
        j : 0.000209172 0.000209172 0 0 
        k : 0.000470958 0.000470958 0.000550572 0.000550572 
    Block 16232 cell size :
        i : 1
        j : 0.000203002 0.000203002 0 0 
        k : 0.000470958 0.000470958 0.000545818 0.000545818 
    Block 16233 cell size :
        i : 1
        j : 2.63059e-05 2.63059e-05 0 0 
        k : 2.61725e-05 2.61725e-05 3.64005e-05 3.64005e-05 
    Block 16234 cell size :
        i : 1
        j : 2.41868e-05 2.41868e-05 0 0 
        k : 2.41868e-05 2.41868e-05 3.42053e-05 3.42053e-05 

Writing polyMesh
----------------
Mesh Information
----------------
  boundingBox: (-0.75 -0.75 0) (1.75 0.75 1)
  nPoints: 20366
  nCells: 16235
  nFaces: 58889
  nInternalFaces: 26049
----------------
Patches
----------------
  patch 0 (start: 26049 size: 29) name: top
  patch 1 (start: 26078 size: 29) name: bottom
  patch 2 (start: 26107 size: 17) name: inlet
  patch 3 (start: 26124 size: 17) name: outlet
  patch 4 (start: 26141 size: 278) name: deck
  patch 5 (start: 26419 size: 32470) name: frontAndBack
  patch 6 (start: 58889 size: 0) name: defaultFaces

End

