nohup: ignoring input
nice: cannot set niceness: Permission denied
/*---------------------------------------------------------------------------*\
  =========                 |
  \\      /  F ield         | OpenFOAM: The Open Source CFD Toolbox
   \\    /   O peration     | Website:  https://openfoam.org
    \\  /    A nd           | Version:  8
     \\/     M anipulation  |
\*---------------------------------------------------------------------------*/
Build  : 8-9b73cf21a682
Exec   : pisoFoam
Date   : Oct 11 2020
Time   : 14:40:27
Host   : "bnes"
PID    : 14991
I/O    : uncollated
Case   : /media/sbkim/2266B8F966B8CEB3/git/openfoam_seo/of/org/jbk2/tower_lon_piso
nProcs : 1
sigFpe : Enabling floating point exception trapping (FOAM_SIGFPE).
fileModificationChecking : Monitoring run-time modified files using timeStampMaster (fileModificationSkew 10)
allowSystemOperations : Allowing user-supplied system call operations

// * * * * * * * * * * * * * * * * * * * * * * * * * * * * * * * * * * * * * //
Create time

Create mesh for time = 0

Reading field p

Reading field U

Reading/calculating face flux field phi

Selecting incompressible transport model Newtonian
Selecting turbulence model type RAS
Selecting RAS turbulence model kEpsilon
RAS
{
    model           kEpsilon;
    turbulence      on;
    printCoeffs     on;
    Cmu             0.09;
    C1              1.44;
    C2              1.92;
    C3              0;
    sigmak          1;
    sigmaEps        1.3;
}

No MRF models present

No finite volume options present

Starting time loop

Time = 1e-05

Courant Number mean: 8.00555e-06 max: 0.000331637
smoothSolver:  Solving for Ux, Initial residual = 1, Final residual = 8.77477e-07, No Iterations 1
smoothSolver:  Solving for Uy, Initial residual = 1, Final residual = 1.07253e-06, No Iterations 1
GAMG:  Solving for p, Initial residual = 1, Final residual = 0.0722828, No Iterations 7
time step continuity errors : sum local = 1.15733e-06, global = -8.43512e-08, cumulative = -8.43512e-08
GAMG:  Solving for p, Initial residual = 0.0552062, Final residual = 8.48496e-07, No Iterations 29
time step continuity errors : sum local = 1.17846e-09, global = -5.76775e-11, cumulative = -8.44089e-08
smoothSolver:  Solving for epsilon, Initial residual = 7.32321e-05, Final residual = 7.04056e-06, No Iterations 1
smoothSolver:  Solving for k, Initial residual = 1, Final residual = 2.59282e-06, No Iterations 5
ExecutionTime = 0.05 s  ClockTime = 0 s

Time = 2e-05

Courant Number mean: 0.0009873 max: 0.934778
smoothSolver:  Solving for Ux, Initial residual = 0.968254, Final residual = 1.60801e-06, No Iterations 2
smoothSolver:  Solving for Uy, Initial residual = 0.332945, Final residual = 2.20998e-06, No Iterations 2
GAMG:  Solving for p, Initial residual = 0.0256271, Final residual = 0.0024315, No Iterations 5
time step continuity errors : sum local = 3.57772e-06, global = 2.66218e-07, cumulative = 1.81809e-07
GAMG:  Solving for p, Initial residual = 0.509763, Final residual = 8.99315e-07, No Iterations 50
time step continuity errors : sum local = 1.31661e-10, global = 6.48239e-12, cumulative = 1.81815e-07
smoothSolver:  Solving for epsilon, Initial residual = 2.15055e-05, Final residual = 1.05373e-06, No Iterations 1
smoothSolver:  Solving for k, Initial residual = 0.00116903, Final residual = 2.01666e-06, No Iterations 2
ExecutionTime = 0.07 s  ClockTime = 0 s

Time = 3e-05

Courant Number mean: 0.000989991 max: 1.07641
smoothSolver:  Solving for Ux, Initial residual = 0.0783868, Final residual = 7.10623e-07, No Iterations 2
smoothSolver:  Solving for Uy, Initial residual = 0.078756, Final residual = 7.69525e-07, No Iterations 2
GAMG:  Solving for p, Initial residual = 0.423256, Final residual = 0.0405568, No Iterations 1
time step continuity errors : sum local = 1.5457e-06, global = 5.7509e-08, cumulative = 2.39324e-07
GAMG:  Solving for p, Initial residual = 0.104942, Final residual = 9.76532e-07, No Iterations 50
time step continuity errors : sum local = 2.49005e-11, global = 3.96054e-13, cumulative = 2.39325e-07
smoothSolver:  Solving for epsilon, Initial residual = 1.7918e-05, Final residual = 6.42511e-07, No Iterations 1
smoothSolver:  Solving for k, Initial residual = 0.000628299, Final residual = 2.25889e-06, No Iterations 2
ExecutionTime = 0.08 s  ClockTime = 0 s

Time = 4e-05

Courant Number mean: 0.000990319 max: 1.11625
smoothSolver:  Solving for Ux, Initial residual = 0.0277622, Final residual = 5.04499e-07, No Iterations 2
smoothSolver:  Solving for Uy, Initial residual = 0.0313956, Final residual = 4.44309e-07, No Iterations 2
GAMG:  Solving for p, Initial residual = 0.234623, Final residual = 0.0208761, No Iterations 1
time step continuity errors : sum local = 3.53974e-07, global = -6.27083e-10, cumulative = 2.38698e-07
GAMG:  Solving for p, Initial residual = 0.0375635, Final residual = 9.74714e-07, No Iterations 51
time step continuity errors : sum local = 1.34217e-11, global = 3.78528e-13, cumulative = 2.38698e-07
smoothSolver:  Solving for epsilon, Initial residual = 1.8885e-05, Final residual = 9.66896e-07, No Iterations 1
smoothSolver:  Solving for k, Initial residual = 0.000422467, Final residual = 3.35198e-06, No Iterations 2
ExecutionTime = 0.1 s  ClockTime = 0 s

Time = 5e-05

Courant Number mean: 0.000990354 max: 1.11303
smoothSolver:  Solving for Ux, Initial residual = 0.0200747, Final residual = 2.42105e-07, No Iterations 2
smoothSolver:  Solving for Uy, Initial residual = 0.0190696, Final residual = 2.39391e-07, No Iterations 2
GAMG:  Solving for p, Initial residual = 0.135566, Final residual = 0.00991608, No Iterations 1
time step continuity errors : sum local = 1.23318e-07, global = -1.00853e-09, cumulative = 2.3769e-07
GAMG:  Solving for p, Initial residual = 0.0168359, Final residual = 9.36765e-07, No Iterations 46
time step continuity errors : sum local = 1.02923e-11, global = -3.37896e-13, cumulative = 2.37689e-07
smoothSolver:  Solving for epsilon, Initial residual = 2.07223e-05, Final residual = 1.6625e-06, No Iterations 1
smoothSolver:  Solving for k, Initial residual = 0.000314648, Final residual = 5.54703e-06, No Iterations 2
ExecutionTime = 0.11 s  ClockTime = 0 s

Time = 6e-05

Courant Number mean: 0.000990381 max: 1.10759
smoothSolver:  Solving for Ux, Initial residual = 0.0165657, Final residual = 9.34044e-06, No Iterations 1
smoothSolver:  Solving for Uy, Initial residual = 0.0145572, Final residual = 3.4426e-07, No Iterations 2
GAMG:  Solving for p, Initial residual = 0.0976572, Final residual = 0.00632548, No Iterations 1
time step continuity errors : sum local = 6.37929e-08, global = -1.07982e-09, cumulative = 2.36609e-07
GAMG:  Solving for p, Initial residual = 0.00936376, Final residual = 9.34974e-07, No Iterations 34
time step continuity errors : sum local = 8.6368e-12, global = -2.07585e-13, cumulative = 2.36609e-07
smoothSolver:  Solving for epsilon, Initial residual = 2.28857e-05, Final residual = 2.67287e-06, No Iterations 1
smoothSolver:  Solving for k, Initial residual = 0.000245492, Final residual = 8.22768e-06, No Iterations 2
ExecutionTime = 0.12 s  ClockTime = 0 s

Time = 7e-05

Courant Number mean: 0.000990385 max: 1.09455
smoothSolver:  Solving for Ux, Initial residual = 0.0141866, Final residual = 8.31863e-06, No Iterations 1
smoothSolver:  Solving for Uy, Initial residual = 0.0118616, Final residual = 8.82625e-06, No Iterations 1
GAMG:  Solving for p, Initial residual = 0.0781479, Final residual = 0.00467728, No Iterations 1
time step continuity errors : sum local = 4.01081e-08, global = -1.07364e-09, cumulative = 2.35536e-07
GAMG:  Solving for p, Initial residual = 0.0067983, Final residual = 9.15542e-07, No Iterations 32
time step continuity errors : sum local = 7.30809e-12, global = -1.29379e-13, cumulative = 2.35535e-07
smoothSolver:  Solving for epsilon, Initial residual = 2.51481e-05, Final residual = 3.94601e-06, No Iterations 1
smoothSolver:  Solving for k, Initial residual = 0.000198639, Final residual = 4.5182e-06, No Iterations 3
ExecutionTime = 0.14 s  ClockTime = 0 s

Time = 8e-05

Courant Number mean: 0.000990382 max: 1.06975
smoothSolver:  Solving for Ux, Initial residual = 0.0124053, Final residual = 7.51247e-06, No Iterations 1
smoothSolver:  Solving for Uy, Initial residual = 0.0100484, Final residual = 8.1546e-06, No Iterations 1
GAMG:  Solving for p, Initial residual = 0.0673703, Final residual = 0.00390915, No Iterations 1
time step continuity errors : sum local = 2.92144e-08, global = -9.64807e-10, cumulative = 2.34571e-07
GAMG:  Solving for p, Initial residual = 0.00556501, Final residual = 9.44136e-07, No Iterations 26
time step continuity errors : sum local = 6.63619e-12, global = -1.42656e-13, cumulative = 2.3457e-07
smoothSolver:  Solving for epsilon, Initial residual = 2.73164e-05, Final residual = 5.55316e-06, No Iterations 1
smoothSolver:  Solving for k, Initial residual = 0.000163855, Final residual = 6.47624e-06, No Iterations 3
ExecutionTime = 0.15 s  ClockTime = 0 s

Time = 9e-05

Courant Number mean: 0.000990371 max: 1.03994
smoothSolver:  Solving for Ux, Initial residual = 0.0110063, Final residual = 6.97631e-06, No Iterations 1
smoothSolver:  Solving for Uy, Initial residual = 0.00870779, Final residual = 7.78458e-06, No Iterations 1
GAMG:  Solving for p, Initial residual = 0.0592607, Final residual = 0.0034261, No Iterations 1
time step continuity errors : sum local = 2.26919e-08, global = -8.8661e-10, cumulative = 2.33684e-07
GAMG:  Solving for p, Initial residual = 0.00483353, Final residual = 9.31772e-07, No Iterations 29
time step continuity errors : sum local = 5.8498e-12, global = -1.42202e-13, cumulative = 2.33684e-07
smoothSolver:  Solving for epsilon, Initial residual = 2.98362e-05, Final residual = 7.70975e-06, No Iterations 1
smoothSolver:  Solving for k, Initial residual = 0.000136997, Final residual = 7.63224e-06, No Iterations 3
ExecutionTime = 0.16 s  ClockTime = 0 s

Time = 0.0001

Courant Number mean: 0.000990355 max: 1.01066
smoothSolver:  Solving for Ux, Initial residual = 0.00987874, Final residual = 6.54093e-06, No Iterations 1
smoothSolver:  Solving for Uy, Initial residual = 0.00766121, Final residual = 7.36705e-06, No Iterations 1
GAMG:  Solving for p, Initial residual = 0.0522758, Final residual = 0.00296678, No Iterations 1
time step continuity errors : sum local = 1.76526e-08, global = -7.88214e-10, cumulative = 2.32895e-07
GAMG:  Solving for p, Initial residual = 0.00419692, Final residual = 8.82571e-07, No Iterations 31
time step continuity errors : sum local = 5.00952e-12, global = -1.26491e-13, cumulative = 2.32895e-07
smoothSolver:  Solving for epsilon, Initial residual = 4.23778e-05, Final residual = 6.68956e-06, No Iterations 3
smoothSolver:  Solving for k, Initial residual = 0.000115713, Final residual = 7.80103e-06, No Iterations 3
ExecutionTime = 0.17 s  ClockTime = 0 s

Time = 0.00011

Courant Number mean: 0.000990339 max: 0.987454
smoothSolver:  Solving for Ux, Initial residual = 0.00893458, Final residual = 6.06215e-06, No Iterations 1
smoothSolver:  Solving for Uy, Initial residual = 0.0068696, Final residual = 6.61904e-06, No Iterations 1
GAMG:  Solving for p, Initial residual = 0.046776, Final residual = 0.0027609, No Iterations 1
time step continuity errors : sum local = 1.49414e-08, global = -7.14484e-10, cumulative = 2.32181e-07
GAMG:  Solving for p, Initial residual = 0.00402914, Final residual = 9.20764e-07, No Iterations 35
time step continuity errors : sum local = 4.77523e-12, global = -1.17207e-13, cumulative = 2.32181e-07
smoothSolver:  Solving for epsilon, Initial residual = 3.07571e-05, Final residual = 5.62468e-06, No Iterations 2
smoothSolver:  Solving for k, Initial residual = 9.27779e-05, Final residual = 8.03213e-06, No Iterations 2
ExecutionTime = 0.18 s  ClockTime = 0 s

Time = 0.00012

Courant Number mean: 0.000990329 max: 0.955816
smoothSolver:  Solving for Ux, Initial residual = 0.00815228, Final residual = 5.46215e-06, No Iterations 1
smoothSolver:  Solving for Uy, Initial residual = 0.00624957, Final residual = 5.77158e-06, No Iterations 1
GAMG:  Solving for p, Initial residual = 0.0419899, Final residual = 0.00236898, No Iterations 1
time step continuity errors : sum local = 1.17581e-08, global = -6.38467e-10, cumulative = 2.31542e-07
GAMG:  Solving for p, Initial residual = 0.00331965, Final residual = 9.0789e-07, No Iterations 34
time step continuity errors : sum local = 4.33724e-12, global = -1.03838e-13, cumulative = 2.31542e-07
smoothSolver:  Solving for epsilon, Initial residual = 1.95608e-05, Final residual = 6.38351e-06, No Iterations 1
smoothSolver:  Solving for k, Initial residual = 7.9532e-05, Final residual = 5.71852e-06, No Iterations 2
ExecutionTime = 0.19 s  ClockTime = 0 s

Time = 0.00013

Courant Number mean: 0.00099032 max: 0.926107
smoothSolver:  Solving for Ux, Initial residual = 0.00748412, Final residual = 5.14376e-06, No Iterations 1
smoothSolver:  Solving for Uy, Initial residual = 0.0057442, Final residual = 5.33009e-06, No Iterations 1
GAMG:  Solving for p, Initial residual = 0.0389887, Final residual = 0.00214576, No Iterations 1
time step continuity errors : sum local = 9.84284e-09, global = -5.72727e-10, cumulative = 2.30969e-07
GAMG:  Solving for p, Initial residual = 0.00300151, Final residual = 8.98808e-07, No Iterations 32
time step continuity errors : sum local = 3.98157e-12, global = -9.73438e-14, cumulative = 2.30969e-07
smoothSolver:  Solving for epsilon, Initial residual = 1.77678e-05, Final residual = 6.2845e-06, No Iterations 1
smoothSolver:  Solving for k, Initial residual = 7.13912e-05, Final residual = 4.84549e-06, No Iterations 2
ExecutionTime = 0.2 s  ClockTime = 0 s

Time = 0.00014

Courant Number mean: 0.000990309 max: 0.899218
smoothSolver:  Solving for Ux, Initial residual = 0.00690662, Final residual = 4.89292e-06, No Iterations 1
smoothSolver:  Solving for Uy, Initial residual = 0.00531003, Final residual = 4.87735e-06, No Iterations 1
GAMG:  Solving for p, Initial residual = 0.0348187, Final residual = 0.00191428, No Iterations 1
time step continuity errors : sum local = 8.17333e-09, global = -5.23474e-10, cumulative = 2.30446e-07
GAMG:  Solving for p, Initial residual = 0.00265399, Final residual = 9.87033e-07, No Iterations 31
time step continuity errors : sum local = 4.08437e-12, global = -9.28315e-14, cumulative = 2.30446e-07
smoothSolver:  Solving for epsilon, Initial residual = 1.61157e-05, Final residual = 5.63411e-06, No Iterations 1
smoothSolver:  Solving for k, Initial residual = 6.48321e-05, Final residual = 8.98532e-06, No Iterations 1
ExecutionTime = 0.22 s  ClockTime = 0 s

Time = 0.00015

Courant Number mean: 0.000990297 max: 0.875375
smoothSolver:  Solving for Ux, Initial residual = 0.00641247, Final residual = 4.63282e-06, No Iterations 1
smoothSolver:  Solving for Uy, Initial residual = 0.00494926, Final residual = 4.4334e-06, No Iterations 1
GAMG:  Solving for p, Initial residual = 0.0329357, Final residual = 0.00186128, No Iterations 1
time step continuity errors : sum local = 7.43952e-09, global = -4.77697e-10, cumulative = 2.29968e-07
GAMG:  Solving for p, Initial residual = 0.00262525, Final residual = 9.1284e-07, No Iterations 32
time step continuity errors : sum local = 3.54159e-12, global = -7.80906e-14, cumulative = 2.29968e-07
smoothSolver:  Solving for epsilon, Initial residual = 1.47603e-05, Final residual = 4.83386e-06, No Iterations 1
smoothSolver:  Solving for k, Initial residual = 5.98521e-05, Final residual = 7.54907e-06, No Iterations 1
ExecutionTime = 0.23 s  ClockTime = 0 s

Time = 0.00016

Courant Number mean: 0.000990285 max: 0.853735
smoothSolver:  Solving for Ux, Initial residual = 0.00597635, Final residual = 4.31131e-06, No Iterations 1
smoothSolver:  Solving for Uy, Initial residual = 0.00463946, Final residual = 4.07517e-06, No Iterations 1
GAMG:  Solving for p, Initial residual = 0.0303814, Final residual = 0.00170025, No Iterations 1
time step continuity errors : sum local = 6.38683e-09, global = -4.28078e-10, cumulative = 2.2954e-07
GAMG:  Solving for p, Initial residual = 0.00238309, Final residual = 9.05858e-07, No Iterations 32
time step continuity errors : sum local = 3.31075e-12, global = -6.99543e-14, cumulative = 2.2954e-07
smoothSolver:  Solving for epsilon, Initial residual = 1.32981e-05, Final residual = 4.15352e-06, No Iterations 1
smoothSolver:  Solving for k, Initial residual = 5.57186e-05, Final residual = 6.43523e-06, No Iterations 1
ExecutionTime = 0.24 s  ClockTime = 0 s

Time = 0.00017

Courant Number mean: 0.000990272 max: 0.835156
smoothSolver:  Solving for Ux, Initial residual = 0.00559262, Final residual = 4.0742e-06, No Iterations 1
smoothSolver:  Solving for Uy, Initial residual = 0.00437219, Final residual = 3.75622e-06, No Iterations 1
GAMG:  Solving for p, Initial residual = 0.0286243, Final residual = 0.00159429, No Iterations 1
time step continuity errors : sum local = 5.65227e-09, global = -3.90886e-10, cumulative = 2.29149e-07
GAMG:  Solving for p, Initial residual = 0.00222603, Final residual = 9.85931e-07, No Iterations 30
time step continuity errors : sum local = 3.40645e-12, global = -6.75884e-14, cumulative = 2.29149e-07
smoothSolver:  Solving for epsilon, Initial residual = 1.21078e-05, Final residual = 3.59842e-06, No Iterations 1
smoothSolver:  Solving for k, Initial residual = 5.22325e-05, Final residual = 5.55087e-06, No Iterations 1
ExecutionTime = 0.25 s  ClockTime = 0 s

Time = 0.00018

Courant Number mean: 0.000990258 max: 0.818436
smoothSolver:  Solving for Ux, Initial residual = 0.00524923, Final residual = 3.83454e-06, No Iterations 1
smoothSolver:  Solving for Uy, Initial residual = 0.00413587, Final residual = 3.49804e-06, No Iterations 1
GAMG:  Solving for p, Initial residual = 0.026962, Final residual = 0.0014996, No Iterations 1
time step continuity errors : sum local = 5.03504e-09, global = -3.55915e-10, cumulative = 2.28793e-07
GAMG:  Solving for p, Initial residual = 0.00209525, Final residual = 8.7945e-07, No Iterations 31
time step continuity errors : sum local = 2.88228e-12, global = -5.61341e-14, cumulative = 2.28793e-07
smoothSolver:  Solving for epsilon, Initial residual = 1.11068e-05, Final residual = 3.14943e-06, No Iterations 1
smoothSolver:  Solving for k, Initial residual = 4.92621e-05, Final residual = 4.83353e-06, No Iterations 1
ExecutionTime = 0.27 s  ClockTime = 0 s

Time = 0.00019

Courant Number mean: 0.000990244 max: 0.802921
smoothSolver:  Solving for Ux, Initial residual = 0.00494184, Final residual = 3.62792e-06, No Iterations 1
smoothSolver:  Solving for Uy, Initial residual = 0.00392916, Final residual = 3.26713e-06, No Iterations 1
GAMG:  Solving for p, Initial residual = 0.0254694, Final residual = 0.00141318, No Iterations 1
time step continuity errors : sum local = 4.50781e-09, global = -3.26951e-10, cumulative = 2.28466e-07
GAMG:  Solving for p, Initial residual = 0.00196432, Final residual = 8.93267e-07, No Iterations 30
time step continuity errors : sum local = 2.78488e-12, global = -5.3138e-14, cumulative = 2.28466e-07
smoothSolver:  Solving for epsilon, Initial residual = 1.02691e-05, Final residual = 2.78193e-06, No Iterations 1
smoothSolver:  Solving for k, Initial residual = 4.67112e-05, Final residual = 4.25088e-06, No Iterations 1
ExecutionTime = 0.28 s  ClockTime = 0 s

Time = 0.0002

Courant Number mean: 0.00099023 max: 0.787891
smoothSolver:  Solving for Ux, Initial residual = 0.00466452, Final residual = 3.43409e-06, No Iterations 1
smoothSolver:  Solving for Uy, Initial residual = 0.00374319, Final residual = 3.07409e-06, No Iterations 1
GAMG:  Solving for p, Initial residual = 0.0241169, Final residual = 0.00134057, No Iterations 1
time step continuity errors : sum local = 4.07346e-09, global = -2.98873e-10, cumulative = 2.28167e-07
GAMG:  Solving for p, Initial residual = 0.00185625, Final residual = 9.53355e-07, No Iterations 29
time step continuity errors : sum local = 2.83469e-12, global = -5.43591e-14, cumulative = 2.28167e-07
smoothSolver:  Solving for epsilon, Initial residual = 9.55592e-06, Final residual = 9.55592e-06, No Iterations 0
smoothSolver:  Solving for k, Initial residual = 4.45195e-05, Final residual = 3.78318e-06, No Iterations 1
ExecutionTime = 0.29 s  ClockTime = 0 s

Time = 0.00021

Courant Number mean: 0.000990215 max: 0.77315
smoothSolver:  Solving for Ux, Initial residual = 0.00441419, Final residual = 3.28773e-06, No Iterations 1
smoothSolver:  Solving for Uy, Initial residual = 0.00357528, Final residual = 3.00051e-06, No Iterations 1
GAMG:  Solving for p, Initial residual = 0.0233201, Final residual = 0.00128157, No Iterations 1
time step continuity errors : sum local = 3.71911e-09, global = -2.74863e-10, cumulative = 2.27892e-07
GAMG:  Solving for p, Initial residual = 0.00177194, Final residual = 9.83178e-07, No Iterations 25
time step continuity errors : sum local = 2.79752e-12, global = -6.91644e-14, cumulative = 2.27892e-07
smoothSolver:  Solving for epsilon, Initial residual = 9.87791e-06, Final residual = 9.87791e-06, No Iterations 0
smoothSolver:  Solving for k, Initial residual = 4.40444e-05, Final residual = 3.93816e-06, No Iterations 1
ExecutionTime = 0.3 s  ClockTime = 0 s

Time = 0.00022

Courant Number mean: 0.0009902 max: 0.759592
smoothSolver:  Solving for Ux, Initial residual = 0.00418662, Final residual = 3.24839e-06, No Iterations 1
smoothSolver:  Solving for Uy, Initial residual = 0.00342314, Final residual = 2.89453e-06, No Iterations 1
GAMG:  Solving for p, Initial residual = 0.0222935, Final residual = 0.00122137, No Iterations 1
time step continuity errors : sum local = 3.39792e-09, global = -2.51572e-10, cumulative = 2.27641e-07
GAMG:  Solving for p, Initial residual = 0.0017211, Final residual = 8.86416e-07, No Iterations 26
time step continuity errors : sum local = 2.42075e-12, global = -6.04349e-14, cumulative = 2.2764e-07
smoothSolver:  Solving for epsilon, Initial residual = 1.02881e-05, Final residual = 2.81157e-06, No Iterations 1
smoothSolver:  Solving for k, Initial residual = 4.36981e-05, Final residual = 4.1293e-06, No Iterations 1
ExecutionTime = 0.31 s  ClockTime = 0 s

Time = 0.00023

Courant Number mean: 0.000990183 max: 0.747028
smoothSolver:  Solving for Ux, Initial residual = 0.00397812, Final residual = 3.1403e-06, No Iterations 1
smoothSolver:  Solving for Uy, Initial residual = 0.00328333, Final residual = 2.71583e-06, No Iterations 1
GAMG:  Solving for p, Initial residual = 0.021235, Final residual = 0.00124162, No Iterations 1
time step continuity errors : sum local = 3.31863e-09, global = -2.28971e-10, cumulative = 2.27411e-07
GAMG:  Solving for p, Initial residual = 0.001737, Final residual = 9.15315e-07, No Iterations 32
time step continuity errors : sum local = 2.40073e-12, global = -4.58045e-14, cumulative = 2.27411e-07
smoothSolver:  Solving for epsilon, Initial residual = 9.42503e-06, Final residual = 9.42503e-06, No Iterations 0
smoothSolver:  Solving for k, Initial residual = 4.18237e-05, Final residual = 3.73859e-06, No Iterations 1
ExecutionTime = 0.32 s  ClockTime = 0 s

Time = 0.00024

Courant Number mean: 0.000990167 max: 0.734442
smoothSolver:  Solving for Ux, Initial residual = 0.00378699, Final residual = 2.99357e-06, No Iterations 1
smoothSolver:  Solving for Uy, Initial residual = 0.00315604, Final residual = 2.71688e-06, No Iterations 1
GAMG:  Solving for p, Initial residual = 0.020557, Final residual = 0.00118757, No Iterations 1
time step continuity errors : sum local = 3.05128e-09, global = -2.1604e-10, cumulative = 2.27195e-07
GAMG:  Solving for p, Initial residual = 0.00169717, Final residual = 9.1361e-07, No Iterations 26
time step continuity errors : sum local = 2.30879e-12, global = -5.65939e-14, cumulative = 2.27195e-07
smoothSolver:  Solving for epsilon, Initial residual = 9.77281e-06, Final residual = 9.77281e-06, No Iterations 0
smoothSolver:  Solving for k, Initial residual = 4.17322e-05, Final residual = 3.98344e-06, No Iterations 1
ExecutionTime = 0.33 s  ClockTime = 0 s

Time = 0.00025

Courant Number mean: 0.00099015 max: 0.723507
smoothSolver:  Solving for Ux, Initial residual = 0.0036119, Final residual = 2.98165e-06, No Iterations 1
smoothSolver:  Solving for Uy, Initial residual = 0.00304118, Final residual = 2.66594e-06, No Iterations 1
GAMG:  Solving for p, Initial residual = 0.0200117, Final residual = 0.00115427, No Iterations 1
time step continuity errors : sum local = 2.86084e-09, global = -2.00596e-10, cumulative = 2.26995e-07
GAMG:  Solving for p, Initial residual = 0.00170179, Final residual = 9.98543e-07, No Iterations 28
time step continuity errors : sum local = 2.43647e-12, global = -5.59376e-14, cumulative = 2.26995e-07
smoothSolver:  Solving for epsilon, Initial residual = 1.01945e-05, Final residual = 2.82626e-06, No Iterations 1
smoothSolver:  Solving for k, Initial residual = 4.1762e-05, Final residual = 4.30847e-06, No Iterations 1
ExecutionTime = 0.34 s  ClockTime = 0 s

Time = 0.00026

Courant Number mean: 0.000990132 max: 0.714587
smoothSolver:  Solving for Ux, Initial residual = 0.00345003, Final residual = 2.88179e-06, No Iterations 1
smoothSolver:  Solving for Uy, Initial residual = 0.00293363, Final residual = 2.50239e-06, No Iterations 1
GAMG:  Solving for p, Initial residual = 0.019037, Final residual = 0.00114586, No Iterations 1
time step continuity errors : sum local = 2.74368e-09, global = -1.85363e-10, cumulative = 2.26809e-07
GAMG:  Solving for p, Initial residual = 0.00162766, Final residual = 8.97098e-07, No Iterations 33
time step continuity errors : sum local = 2.11233e-12, global = -4.01685e-14, cumulative = 2.26809e-07
smoothSolver:  Solving for epsilon, Initial residual = 9.18022e-06, Final residual = 9.18022e-06, No Iterations 0
smoothSolver:  Solving for k, Initial residual = 4.00091e-05, Final residual = 3.93986e-06, No Iterations 1
ExecutionTime = 0.36 s  ClockTime = 0 s

Time = 0.00027

Courant Number mean: 0.000990113 max: 0.70642
smoothSolver:  Solving for Ux, Initial residual = 0.00330074, Final residual = 2.77203e-06, No Iterations 1
smoothSolver:  Solving for Uy, Initial residual = 0.00283534, Final residual = 2.58042e-06, No Iterations 1
GAMG:  Solving for p, Initial residual = 0.0187012, Final residual = 0.00115316, No Iterations 1
time step continuity errors : sum local = 2.66607e-09, global = -1.72597e-10, cumulative = 2.26637e-07
GAMG:  Solving for p, Initial residual = 0.00174187, Final residual = 8.91583e-07, No Iterations 29
time step continuity errors : sum local = 2.03187e-12, global = -4.94734e-14, cumulative = 2.26637e-07
smoothSolver:  Solving for epsilon, Initial residual = 9.48091e-06, Final residual = 9.48091e-06, No Iterations 0
smoothSolver:  Solving for k, Initial residual = 4.01679e-05, Final residual = 4.30051e-06, No Iterations 1
ExecutionTime = 0.37 s  ClockTime = 0 s

Time = 0.00028

Courant Number mean: 0.000990095 max: 0.699903
smoothSolver:  Solving for Ux, Initial residual = 0.00316342, Final residual = 2.77691e-06, No Iterations 1
smoothSolver:  Solving for Uy, Initial residual = 0.00274443, Final residual = 2.57993e-06, No Iterations 1
GAMG:  Solving for p, Initial residual = 0.0181476, Final residual = 0.00112972, No Iterations 1
time step continuity errors : sum local = 2.5308e-09, global = -1.60762e-10, cumulative = 2.26476e-07
GAMG:  Solving for p, Initial residual = 0.00175262, Final residual = 9.89718e-07, No Iterations 31
time step continuity errors : sum local = 2.18746e-12, global = -4.55376e-14, cumulative = 2.26476e-07
smoothSolver:  Solving for epsilon, Initial residual = 9.83359e-06, Final residual = 9.83359e-06, No Iterations 0
smoothSolver:  Solving for k, Initial residual = 4.04705e-05, Final residual = 4.75154e-06, No Iterations 1
ExecutionTime = 0.38 s  ClockTime = 0 s

Time = 0.00029

Courant Number mean: 0.000990075 max: 0.69463
smoothSolver:  Solving for Ux, Initial residual = 0.00303683, Final residual = 2.76827e-06, No Iterations 1
smoothSolver:  Solving for Uy, Initial residual = 0.00266006, Final residual = 2.67231e-06, No Iterations 1
GAMG:  Solving for p, Initial residual = 0.017928, Final residual = 0.00116779, No Iterations 1
time step continuity errors : sum local = 2.53912e-09, global = -1.49332e-10, cumulative = 2.26326e-07
GAMG:  Solving for p, Initial residual = 0.00189571, Final residual = 9.21791e-07, No Iterations 30
time step continuity errors : sum local = 1.97901e-12, global = -4.50413e-14, cumulative = 2.26326e-07
smoothSolver:  Solving for epsilon, Initial residual = 1.02466e-05, Final residual = 2.94706e-06, No Iterations 1
smoothSolver:  Solving for k, Initial residual = 4.08592e-05, Final residual = 5.30567e-06, No Iterations 1
ExecutionTime = 0.4 s  ClockTime = 0 s

Time = 0.0003

Courant Number mean: 0.000990055 max: 0.690251
smoothSolver:  Solving for Ux, Initial residual = 0.00291852, Final residual = 2.70069e-06, No Iterations 1
smoothSolver:  Solving for Uy, Initial residual = 0.0025794, Final residual = 2.41267e-06, No Iterations 1
GAMG:  Solving for p, Initial residual = 0.0173247, Final residual = 0.00108589, No Iterations 1
time step continuity errors : sum local = 2.29406e-09, global = -1.39548e-10, cumulative = 2.26187e-07
GAMG:  Solving for p, Initial residual = 0.0016506, Final residual = 8.92096e-07, No Iterations 33
time step continuity errors : sum local = 1.85682e-12, global = -3.81408e-14, cumulative = 2.26187e-07
smoothSolver:  Solving for epsilon, Initial residual = 9.07741e-06, Final residual = 9.07741e-06, No Iterations 0
smoothSolver:  Solving for k, Initial residual = 3.89502e-05, Final residual = 4.79611e-06, No Iterations 1
ExecutionTime = 0.41 s  ClockTime = 0 s

Time = 0.00031

Courant Number mean: 0.000990034 max: 0.686235
smoothSolver:  Solving for Ux, Initial residual = 0.00280824, Final residual = 2.62525e-06, No Iterations 1
smoothSolver:  Solving for Uy, Initial residual = 0.0025057, Final residual = 2.66634e-06, No Iterations 1
GAMG:  Solving for p, Initial residual = 0.0170536, Final residual = 0.00117693, No Iterations 1
time step continuity errors : sum local = 2.41249e-09, global = -1.31556e-10, cumulative = 2.26055e-07
GAMG:  Solving for p, Initial residual = 0.00193569, Final residual = 9.94342e-07, No Iterations 32
time step continuity errors : sum local = 2.01441e-12, global = -4.00888e-14, cumulative = 2.26055e-07
smoothSolver:  Solving for epsilon, Initial residual = 9.35138e-06, Final residual = 9.35138e-06, No Iterations 0
smoothSolver:  Solving for k, Initial residual = 3.93172e-05, Final residual = 5.31856e-06, No Iterations 1
ExecutionTime = 0.42 s  ClockTime = 0 s

Time = 0.00032

Courant Number mean: 0.000990014 max: 0.683551
smoothSolver:  Solving for Ux, Initial residual = 0.00270619, Final residual = 2.69201e-06, No Iterations 1
smoothSolver:  Solving for Uy, Initial residual = 0.0024357, Final residual = 2.70352e-06, No Iterations 1
GAMG:  Solving for p, Initial residual = 0.0167263, Final residual = 0.00117578, No Iterations 1
time step continuity errors : sum local = 2.34764e-09, global = -1.23607e-10, cumulative = 2.25932e-07
GAMG:  Solving for p, Initial residual = 0.0019571, Final residual = 9.74597e-07, No Iterations 35
time step continuity errors : sum local = 1.92448e-12, global = -3.60936e-14, cumulative = 2.25932e-07
smoothSolver:  Solving for epsilon, Initial residual = 9.67573e-06, Final residual = 9.67573e-06, No Iterations 0
smoothSolver:  Solving for k, Initial residual = 3.97191e-05, Final residual = 5.89563e-06, No Iterations 1
ExecutionTime = 0.43 s  ClockTime = 0 s

Time = 0.00033

Courant Number mean: 0.000989992 max: 0.682118
smoothSolver:  Solving for Ux, Initial residual = 0.00261201, Final residual = 2.73651e-06, No Iterations 1
smoothSolver:  Solving for Uy, Initial residual = 0.00237028, Final residual = 2.90231e-06, No Iterations 1
GAMG:  Solving for p, Initial residual = 0.0165563, Final residual = 0.0011764, No Iterations 1
time step continuity errors : sum local = 2.29125e-09, global = -1.16274e-10, cumulative = 2.25815e-07
GAMG:  Solving for p, Initial residual = 0.00207484, Final residual = 8.78626e-07, No Iterations 34
time step continuity errors : sum local = 1.69378e-12, global = -3.37971e-14, cumulative = 2.25815e-07
smoothSolver:  Solving for epsilon, Initial residual = 1.00614e-05, Final residual = 2.97842e-06, No Iterations 1
smoothSolver:  Solving for k, Initial residual = 4.00669e-05, Final residual = 6.48556e-06, No Iterations 1
ExecutionTime = 0.44 s  ClockTime = 0 s

Time = 0.00034

Courant Number mean: 0.00098997 max: 0.681654
smoothSolver:  Solving for Ux, Initial residual = 0.00252467, Final residual = 2.71139e-06, No Iterations 1
smoothSolver:  Solving for Uy, Initial residual = 0.00230682, Final residual = 2.49798e-06, No Iterations 1
GAMG:  Solving for p, Initial residual = 0.0164915, Final residual = 0.00113812, No Iterations 1
time step continuity errors : sum local = 2.16286e-09, global = -1.11733e-10, cumulative = 2.25704e-07
GAMG:  Solving for p, Initial residual = 0.00184802, Final residual = 8.9239e-07, No Iterations 35
time step continuity errors : sum local = 1.67237e-12, global = -3.33256e-14, cumulative = 2.25704e-07
smoothSolver:  Solving for epsilon, Initial residual = 8.88761e-06, Final residual = 8.88761e-06, No Iterations 0
smoothSolver:  Solving for k, Initial residual = 3.79245e-05, Final residual = 5.72979e-06, No Iterations 1
ExecutionTime = 0.46 s  ClockTime = 0 s

Time = 0.00035

Courant Number mean: 0.000989948 max: 0.681838
smoothSolver:  Solving for Ux, Initial residual = 0.00244259, Final residual = 2.56668e-06, No Iterations 1
smoothSolver:  Solving for Uy, Initial residual = 0.00224904, Final residual = 2.86496e-06, No Iterations 1
GAMG:  Solving for p, Initial residual = 0.0157562, Final residual = 0.00117432, No Iterations 1
time step continuity errors : sum local = 2.17173e-09, global = -1.03923e-10, cumulative = 2.256e-07
GAMG:  Solving for p, Initial residual = 0.00202647, Final residual = 9.09991e-07, No Iterations 36
time step continuity errors : sum local = 1.66627e-12, global = -3.12627e-14, cumulative = 2.256e-07
smoothSolver:  Solving for epsilon, Initial residual = 9.1345e-06, Final residual = 9.1345e-06, No Iterations 0
smoothSolver:  Solving for k, Initial residual = 3.81538e-05, Final residual = 6.1918e-06, No Iterations 1
ExecutionTime = 0.47 s  ClockTime = 0 s

Time = 0.00036

Courant Number mean: 0.000989927 max: 0.682953
smoothSolver:  Solving for Ux, Initial residual = 0.00236642, Final residual = 2.68355e-06, No Iterations 1
smoothSolver:  Solving for Uy, Initial residual = 0.00219372, Final residual = 2.85186e-06, No Iterations 1
GAMG:  Solving for p, Initial residual = 0.0152654, Final residual = 0.00117248, No Iterations 1
time step continuity errors : sum local = 2.11937e-09, global = -9.84559e-11, cumulative = 2.25501e-07
GAMG:  Solving for p, Initial residual = 0.00190762, Final residual = 9.62474e-07, No Iterations 37
time step continuity errors : sum local = 1.723e-12, global = -3.07468e-14, cumulative = 2.25501e-07
smoothSolver:  Solving for epsilon, Initial residual = 9.43652e-06, Final residual = 9.43652e-06, No Iterations 0
smoothSolver:  Solving for k, Initial residual = 3.83672e-05, Final residual = 6.62962e-06, No Iterations 1
ExecutionTime = 0.48 s  ClockTime = 0 s

Time = 0.00037

Courant Number mean: 0.000989904 max: 0.684781
smoothSolver:  Solving for Ux, Initial residual = 0.00229438, Final residual = 2.70814e-06, No Iterations 1
smoothSolver:  Solving for Uy, Initial residual = 0.00214207, Final residual = 3.04814e-06, No Iterations 1
GAMG:  Solving for p, Initial residual = 0.0151236, Final residual = 0.00115749, No Iterations 1
time step continuity errors : sum local = 2.04779e-09, global = -9.38521e-11, cumulative = 2.25407e-07
GAMG:  Solving for p, Initial residual = 0.00198198, Final residual = 9.52797e-07, No Iterations 36
time step continuity errors : sum local = 1.67086e-12, global = -3.13496e-14, cumulative = 2.25407e-07
smoothSolver:  Solving for epsilon, Initial residual = 9.80298e-06, Final residual = 9.80298e-06, No Iterations 0
smoothSolver:  Solving for k, Initial residual = 3.85527e-05, Final residual = 7.0406e-06, No Iterations 1
ExecutionTime = 0.49 s  ClockTime = 0 s

Time = 0.00038

Courant Number mean: 0.000989882 max: 0.686763
smoothSolver:  Solving for Ux, Initial residual = 0.00222697, Final residual = 2.79268e-06, No Iterations 1
smoothSolver:  Solving for Uy, Initial residual = 0.00209306, Final residual = 3.13257e-06, No Iterations 1
GAMG:  Solving for p, Initial residual = 0.014768, Final residual = 0.00117387, No Iterations 1
time step continuity errors : sum local = 2.03393e-09, global = -8.93871e-11, cumulative = 2.25318e-07
GAMG:  Solving for p, Initial residual = 0.00198584, Final residual = 8.84504e-07, No Iterations 37
time step continuity errors : sum local = 1.51939e-12, global = -2.75579e-14, cumulative = 2.25318e-07
smoothSolver:  Solving for epsilon, Initial residual = 1.02411e-05, Final residual = 3.22435e-06, No Iterations 1
smoothSolver:  Solving for k, Initial residual = 3.87028e-05, Final residual = 7.4218e-06, No Iterations 1
ExecutionTime = 0.5 s  ClockTime = 0 s

Time = 0.00039

Courant Number mean: 0.000989859 max: 0.688801
smoothSolver:  Solving for Ux, Initial residual = 0.00216333, Final residual = 2.83391e-06, No Iterations 1
smoothSolver:  Solving for Uy, Initial residual = 0.00204533, Final residual = 2.68006e-06, No Iterations 1
GAMG:  Solving for p, Initial residual = 0.0158583, Final residual = 0.00129912, No Iterations 1
time step continuity errors : sum local = 2.20642e-09, global = -8.51938e-11, cumulative = 2.25233e-07
GAMG:  Solving for p, Initial residual = 0.0023367, Final residual = 9.00232e-07, No Iterations 40
time step continuity errors : sum local = 1.50985e-12, global = -2.56636e-14, cumulative = 2.25233e-07
smoothSolver:  Solving for epsilon, Initial residual = 8.90093e-06, Final residual = 8.90093e-06, No Iterations 0
smoothSolver:  Solving for k, Initial residual = 3.65662e-05, Final residual = 6.54016e-06, No Iterations 1
ExecutionTime = 0.52 s  ClockTime = 0 s

Time = 0.0004

Courant Number mean: 0.000989837 max: 0.690759
smoothSolver:  Solving for Ux, Initial residual = 0.00210196, Final residual = 2.56306e-06, No Iterations 1
smoothSolver:  Solving for Uy, Initial residual = 0.00200125, Final residual = 3.07662e-06, No Iterations 1
GAMG:  Solving for p, Initial residual = 0.014415, Final residual = 0.00127038, No Iterations 1
time step continuity errors : sum local = 2.10602e-09, global = -8.32587e-11, cumulative = 2.25149e-07
GAMG:  Solving for p, Initial residual = 0.00221515, Final residual = 9.58158e-07, No Iterations 38
time step continuity errors : sum local = 1.57516e-12, global = -2.88475e-14, cumulative = 2.25149e-07
smoothSolver:  Solving for epsilon, Initial residual = 9.15229e-06, Final residual = 9.15229e-06, No Iterations 0
smoothSolver:  Solving for k, Initial residual = 3.67266e-05, Final residual = 6.85479e-06, No Iterations 1
ExecutionTime = 0.53 s  ClockTime = 0 s

Time = 0.00041

Courant Number mean: 0.000989815 max: 0.692689
smoothSolver:  Solving for Ux, Initial residual = 0.00204511, Final residual = 2.74747e-06, No Iterations 1
smoothSolver:  Solving for Uy, Initial residual = 0.00195875, Final residual = 3.05778e-06, No Iterations 1
GAMG:  Solving for p, Initial residual = 0.0138632, Final residual = 0.00117421, No Iterations 1
time step continuity errors : sum local = 1.91058e-09, global = -7.62357e-11, cumulative = 2.25073e-07
GAMG:  Solving for p, Initial residual = 0.00194145, Final residual = 9.9501e-07, No Iterations 39
time step continuity errors : sum local = 1.60684e-12, global = -2.79718e-14, cumulative = 2.25073e-07
smoothSolver:  Solving for epsilon, Initial residual = 9.46259e-06, Final residual = 9.46259e-06, No Iterations 0
smoothSolver:  Solving for k, Initial residual = 3.68873e-05, Final residual = 7.15765e-06, No Iterations 1
ExecutionTime = 0.55 s  ClockTime = 0 s

Time = 0.00042

Courant Number mean: 0.000989793 max: 0.694251
smoothSolver:  Solving for Ux, Initial residual = 0.00199089, Final residual = 2.77397e-06, No Iterations 1
smoothSolver:  Solving for Uy, Initial residual = 0.0019188, Final residual = 3.23814e-06, No Iterations 1
GAMG:  Solving for p, Initial residual = 0.0137697, Final residual = 0.00118561, No Iterations 1
time step continuity errors : sum local = 1.89594e-09, global = -7.37487e-11, cumulative = 2.24999e-07
GAMG:  Solving for p, Initial residual = 0.00206516, Final residual = 8.8501e-07, No Iterations 37
time step continuity errors : sum local = 1.40531e-12, global = -2.74091e-14, cumulative = 2.24999e-07
smoothSolver:  Solving for epsilon, Initial residual = 9.83141e-06, Final residual = 9.83141e-06, No Iterations 0
smoothSolver:  Solving for k, Initial residual = 3.70369e-05, Final residual = 7.43747e-06, No Iterations 1
ExecutionTime = 0.55 s  ClockTime = 0 s

Time = 0.00043

Courant Number mean: 0.000989771 max: 0.695627
smoothSolver:  Solving for Ux, Initial residual = 0.00193939, Final residual = 2.88962e-06, No Iterations 1
smoothSolver:  Solving for Uy, Initial residual = 0.00188041, Final residual = 3.33406e-06, No Iterations 1
GAMG:  Solving for p, Initial residual = 0.0136374, Final residual = 0.00122011, No Iterations 1
time step continuity errors : sum local = 1.9196e-09, global = -6.97825e-11, cumulative = 2.24929e-07
GAMG:  Solving for p, Initial residual = 0.00211505, Final residual = 9.47429e-07, No Iterations 39
time step continuity errors : sum local = 1.48084e-12, global = -2.70566e-14, cumulative = 2.24929e-07
smoothSolver:  Solving for epsilon, Initial residual = 1.02647e-05, Final residual = 3.41206e-06, No Iterations 1
smoothSolver:  Solving for k, Initial residual = 3.71518e-05, Final residual = 7.68719e-06, No Iterations 1
ExecutionTime = 0.57 s  ClockTime = 0 s

Time = 0.00044

Courant Number mean: 0.000989748 max: 0.696957
smoothSolver:  Solving for Ux, Initial residual = 0.00189014, Final residual = 2.98195e-06, No Iterations 1
smoothSolver:  Solving for Uy, Initial residual = 0.00184224, Final residual = 2.83658e-06, No Iterations 1
GAMG:  Solving for p, Initial residual = 0.0150525, Final residual = 0.0013403, No Iterations 1
time step continuity errors : sum local = 2.07582e-09, global = -6.8367e-11, cumulative = 2.24861e-07
GAMG:  Solving for p, Initial residual = 0.00242917, Final residual = 9.53779e-07, No Iterations 45
time step continuity errors : sum local = 1.46072e-12, global = -2.52397e-14, cumulative = 2.24861e-07
smoothSolver:  Solving for epsilon, Initial residual = 8.99891e-06, Final residual = 8.99891e-06, No Iterations 0
smoothSolver:  Solving for k, Initial residual = 3.51683e-05, Final residual = 6.80552e-06, No Iterations 1
ExecutionTime = 0.58 s  ClockTime = 0 s

Time = 0.00045

Courant Number mean: 0.000989728 max: 0.699218
smoothSolver:  Solving for Ux, Initial residual = 0.00184177, Final residual = 2.63816e-06, No Iterations 1
smoothSolver:  Solving for Uy, Initial residual = 0.00180757, Final residual = 3.29093e-06, No Iterations 1
GAMG:  Solving for p, Initial residual = 0.0135533, Final residual = 0.000576988, No Iterations 2
time step continuity errors : sum local = 8.75262e-10, global = -2.34352e-11, cumulative = 2.24838e-07
GAMG:  Solving for p, Initial residual = 0.00248479, Final residual = 9.27312e-07, No Iterations 41
time step continuity errors : sum local = 1.39778e-12, global = -2.64292e-14, cumulative = 2.24838e-07
smoothSolver:  Solving for epsilon, Initial residual = 9.26292e-06, Final residual = 9.26292e-06, No Iterations 0
smoothSolver:  Solving for k, Initial residual = 3.52965e-05, Final residual = 7.01264e-06, No Iterations 1
ExecutionTime = 0.6 s  ClockTime = 0 s

Time = 0.00046

Courant Number mean: 0.000989707 max: 0.701507
smoothSolver:  Solving for Ux, Initial residual = 0.00179723, Final residual = 2.81288e-06, No Iterations 1
smoothSolver:  Solving for Uy, Initial residual = 0.00177372, Final residual = 3.2244e-06, No Iterations 1
GAMG:  Solving for p, Initial residual = 0.0131327, Final residual = 0.00122818, No Iterations 1
time step continuity errors : sum local = 1.83576e-09, global = -6.09639e-11, cumulative = 2.24777e-07
GAMG:  Solving for p, Initial residual = 0.00223069, Final residual = 9.6464e-07, No Iterations 39
time step continuity errors : sum local = 1.43326e-12, global = -2.79458e-14, cumulative = 2.24777e-07
smoothSolver:  Solving for epsilon, Initial residual = 9.58881e-06, Final residual = 9.58881e-06, No Iterations 0
smoothSolver:  Solving for k, Initial residual = 3.543e-05, Final residual = 7.21e-06, No Iterations 1
ExecutionTime = 0.61 s  ClockTime = 0 s

Time = 0.00047

Courant Number mean: 0.000989686 max: 0.703384
smoothSolver:  Solving for Ux, Initial residual = 0.00175473, Final residual = 2.88925e-06, No Iterations 1
smoothSolver:  Solving for Uy, Initial residual = 0.00174169, Final residual = 3.33918e-06, No Iterations 1
GAMG:  Solving for p, Initial residual = 0.0129441, Final residual = 0.00125139, No Iterations 1
time step continuity errors : sum local = 1.84519e-09, global = -5.83954e-11, cumulative = 2.24718e-07
GAMG:  Solving for p, Initial residual = 0.00231789, Final residual = 8.95679e-07, No Iterations 40
time step continuity errors : sum local = 1.31372e-12, global = -2.61753e-14, cumulative = 2.24718e-07
smoothSolver:  Solving for epsilon, Initial residual = 9.97137e-06, Final residual = 9.97137e-06, No Iterations 0
smoothSolver:  Solving for k, Initial residual = 3.55739e-05, Final residual = 7.40066e-06, No Iterations 1
ExecutionTime = 0.63 s  ClockTime = 0 s

Time = 0.00048

Courant Number mean: 0.000989666 max: 0.705099
smoothSolver:  Solving for Ux, Initial residual = 0.00171389, Final residual = 2.99126e-06, No Iterations 1
smoothSolver:  Solving for Uy, Initial residual = 0.00171091, Final residual = 3.40276e-06, No Iterations 1
GAMG:  Solving for p, Initial residual = 0.0129362, Final residual = 0.00057208, No Iterations 2
time step continuity errors : sum local = 8.32921e-10, global = -2.25792e-11, cumulative = 2.24696e-07
GAMG:  Solving for p, Initial residual = 0.0023152, Final residual = 9.38866e-07, No Iterations 40
time step continuity errors : sum local = 1.36055e-12, global = -2.56275e-14, cumulative = 2.24696e-07
smoothSolver:  Solving for epsilon, Initial residual = 1.0412e-05, Final residual = 3.58018e-06, No Iterations 1
smoothSolver:  Solving for k, Initial residual = 3.57115e-05, Final residual = 7.57533e-06, No Iterations 1
ExecutionTime = 0.64 s  ClockTime = 0 s

Time = 0.00049

Courant Number mean: 0.000989645 max: 0.706871
smoothSolver:  Solving for Ux, Initial residual = 0.00167473, Final residual = 3.04138e-06, No Iterations 1
smoothSolver:  Solving for Uy, Initial residual = 0.00168008, Final residual = 2.90729e-06, No Iterations 1
GAMG:  Solving for p, Initial residual = 0.0142755, Final residual = 0.000628341, No Iterations 2
time step continuity errors : sum local = 9.0359e-10, global = -2.0145e-11, cumulative = 2.24675e-07
GAMG:  Solving for p, Initial residual = 0.00273779, Final residual = 9.45133e-07, No Iterations 48
time step continuity errors : sum local = 1.34449e-12, global = -2.36634e-14, cumulative = 2.24675e-07
smoothSolver:  Solving for epsilon, Initial residual = 9.12822e-06, Final residual = 9.12822e-06, No Iterations 0
smoothSolver:  Solving for k, Initial residual = 3.38764e-05, Final residual = 6.75876e-06, No Iterations 1
ExecutionTime = 0.66 s  ClockTime = 0 s

Time = 0.0005

Courant Number mean: 0.000989625 max: 0.709036
smoothSolver:  Solving for Ux, Initial residual = 0.00163578, Final residual = 2.76908e-06, No Iterations 1
smoothSolver:  Solving for Uy, Initial residual = 0.00165205, Final residual = 3.32843e-06, No Iterations 1
GAMG:  Solving for p, Initial residual = 0.0126994, Final residual = 0.000671601, No Iterations 2
time step continuity errors : sum local = 9.47969e-10, global = -1.89664e-11, cumulative = 2.24656e-07
GAMG:  Solving for p, Initial residual = 0.00266794, Final residual = 9.92705e-07, No Iterations 44
time step continuity errors : sum local = 1.39471e-12, global = -2.63114e-14, cumulative = 2.24656e-07
smoothSolver:  Solving for epsilon, Initial residual = 9.40152e-06, Final residual = 9.40152e-06, No Iterations 0
smoothSolver:  Solving for k, Initial residual = 3.40595e-05, Final residual = 6.92439e-06, No Iterations 1
ExecutionTime = 0.67 s  ClockTime = 0 s

Time = 0.00051

Courant Number mean: 0.000989605 max: 0.711627
smoothSolver:  Solving for Ux, Initial residual = 0.00159947, Final residual = 2.93534e-06, No Iterations 1
smoothSolver:  Solving for Uy, Initial residual = 0.00162466, Final residual = 3.27199e-06, No Iterations 1
GAMG:  Solving for p, Initial residual = 0.0124899, Final residual = 0.000610246, No Iterations 2
time step continuity errors : sum local = 8.5157e-10, global = -2.04139e-11, cumulative = 2.24636e-07
GAMG:  Solving for p, Initial residual = 0.00252662, Final residual = 9.82154e-07, No Iterations 40
time step continuity errors : sum local = 1.36488e-12, global = -2.82347e-14, cumulative = 2.24636e-07
smoothSolver:  Solving for epsilon, Initial residual = 9.7294e-06, Final residual = 9.7294e-06, No Iterations 0
smoothSolver:  Solving for k, Initial residual = 3.42702e-05, Final residual = 7.09521e-06, No Iterations 1
ExecutionTime = 0.68 s  ClockTime = 0 s

Time = 0.00052

Courant Number mean: 0.000989585 max: 0.713752
smoothSolver:  Solving for Ux, Initial residual = 0.00156445, Final residual = 3.01882e-06, No Iterations 1
smoothSolver:  Solving for Uy, Initial residual = 0.00159875, Final residual = 3.3801e-06, No Iterations 1
GAMG:  Solving for p, Initial residual = 0.0125812, Final residual = 0.000660144, No Iterations 2
time step continuity errors : sum local = 9.11476e-10, global = -1.84879e-11, cumulative = 2.24617e-07
GAMG:  Solving for p, Initial residual = 0.00274672, Final residual = 9.57126e-07, No Iterations 41
time step continuity errors : sum local = 1.31671e-12, global = -2.89427e-14, cumulative = 2.24617e-07
smoothSolver:  Solving for epsilon, Initial residual = 1.01036e-05, Final residual = 3.48447e-06, No Iterations 1
smoothSolver:  Solving for k, Initial residual = 3.44823e-05, Final residual = 7.26449e-06, No Iterations 1
ExecutionTime = 0.7 s  ClockTime = 0 s

Time = 0.00053

Courant Number mean: 0.000989565 max: 0.715717
smoothSolver:  Solving for Ux, Initial residual = 0.00153054, Final residual = 3.06103e-06, No Iterations 1
smoothSolver:  Solving for Uy, Initial residual = 0.00157221, Final residual = 2.9444e-06, No Iterations 1
GAMG:  Solving for p, Initial residual = 0.0138295, Final residual = 0.000697234, No Iterations 2
time step continuity errors : sum local = 9.52639e-10, global = -1.66764e-11, cumulative = 2.24601e-07
GAMG:  Solving for p, Initial residual = 0.0029613, Final residual = 9.58385e-07, No Iterations 50
time step continuity errors : sum local = 1.2961e-12, global = -2.29277e-14, cumulative = 2.24601e-07
smoothSolver:  Solving for epsilon, Initial residual = 9.06869e-06, Final residual = 9.06869e-06, No Iterations 0
smoothSolver:  Solving for k, Initial residual = 3.28233e-05, Final residual = 6.54895e-06, No Iterations 1
ExecutionTime = 0.71 s  ClockTime = 0 s

Time = 0.00054

Courant Number mean: 0.000989546 max: 0.717443
smoothSolver:  Solving for Ux, Initial residual = 0.00149724, Final residual = 2.85528e-06, No Iterations 1
smoothSolver:  Solving for Uy, Initial residual = 0.00154837, Final residual = 3.34655e-06, No Iterations 1
GAMG:  Solving for p, Initial residual = 0.0121983, Final residual = 0.000740741, No Iterations 2
time step continuity errors : sum local = 9.94576e-10, global = -1.62845e-11, cumulative = 2.24584e-07
GAMG:  Solving for p, Initial residual = 0.00285882, Final residual = 9.77702e-07, No Iterations 46
time step continuity errors : sum local = 1.30774e-12, global = -2.56112e-14, cumulative = 2.24584e-07
smoothSolver:  Solving for epsilon, Initial residual = 9.32454e-06, Final residual = 9.32454e-06, No Iterations 0
smoothSolver:  Solving for k, Initial residual = 3.30588e-05, Final residual = 6.71325e-06, No Iterations 1
ExecutionTime = 0.73 s  ClockTime = 0 s

Time = 0.00055

Courant Number mean: 0.000989527 max: 0.719634
smoothSolver:  Solving for Ux, Initial residual = 0.00146634, Final residual = 3.03622e-06, No Iterations 1
smoothSolver:  Solving for Uy, Initial residual = 0.00152501, Final residual = 3.30587e-06, No Iterations 1
GAMG:  Solving for p, Initial residual = 0.0119954, Final residual = 0.000677908, No Iterations 2
time step continuity errors : sum local = 9.01224e-10, global = -1.734e-11, cumulative = 2.24567e-07
GAMG:  Solving for p, Initial residual = 0.00272694, Final residual = 9.22861e-07, No Iterations 42
time step continuity errors : sum local = 1.22284e-12, global = -2.67015e-14, cumulative = 2.24567e-07
smoothSolver:  Solving for epsilon, Initial residual = 9.62859e-06, Final residual = 9.62859e-06, No Iterations 0
smoothSolver:  Solving for k, Initial residual = 3.33101e-05, Final residual = 6.88233e-06, No Iterations 1
ExecutionTime = 0.75 s  ClockTime = 0 s

Time = 0.00056

Courant Number mean: 0.000989508 max: 0.721333
smoothSolver:  Solving for Ux, Initial residual = 0.00143639, Final residual = 3.1188e-06, No Iterations 1
smoothSolver:  Solving for Uy, Initial residual = 0.0015028, Final residual = 3.4463e-06, No Iterations 1
GAMG:  Solving for p, Initial residual = 0.0119785, Final residual = 0.000716717, No Iterations 2
time step continuity errors : sum local = 9.44125e-10, global = -1.57801e-11, cumulative = 2.24551e-07
GAMG:  Solving for p, Initial residual = 0.00291276, Final residual = 9.09706e-07, No Iterations 43
time step continuity errors : sum local = 1.19488e-12, global = -2.73288e-14, cumulative = 2.24551e-07
smoothSolver:  Solving for epsilon, Initial residual = 9.97534e-06, Final residual = 9.97534e-06, No Iterations 0
smoothSolver:  Solving for k, Initial residual = 3.35701e-05, Final residual = 7.05316e-06, No Iterations 1
ExecutionTime = 0.76 s  ClockTime = 0 s

Time = 0.00057

Courant Number mean: 0.000989488 max: 0.722811
smoothSolver:  Solving for Ux, Initial residual = 0.00140745, Final residual = 3.24133e-06, No Iterations 1
smoothSolver:  Solving for Uy, Initial residual = 0.00148142, Final residual = 3.57442e-06, No Iterations 1
GAMG:  Solving for p, Initial residual = 0.0120754, Final residual = 0.000734482, No Iterations 2
time step continuity errors : sum local = 9.5935e-10, global = -1.56358e-11, cumulative = 2.24536e-07
GAMG:  Solving for p, Initial residual = 0.00299158, Final residual = 9.19791e-07, No Iterations 43
time step continuity errors : sum local = 1.1983e-12, global = -2.77438e-14, cumulative = 2.24536e-07
smoothSolver:  Solving for epsilon, Initial residual = 1.03636e-05, Final residual = 3.59446e-06, No Iterations 1
smoothSolver:  Solving for k, Initial residual = 3.38077e-05, Final residual = 7.21706e-06, No Iterations 1
ExecutionTime = 0.77 s  ClockTime = 0 s

Time = 0.00058

Courant Number mean: 0.000989469 max: 0.723939
smoothSolver:  Solving for Ux, Initial residual = 0.00137912, Final residual = 3.2178e-06, No Iterations 1
smoothSolver:  Solving for Uy, Initial residual = 0.00145882, Final residual = 3.13827e-06, No Iterations 1
GAMG:  Solving for p, Initial residual = 0.0138761, Final residual = 0.000922986, No Iterations 2
time step continuity errors : sum local = 1.19499e-09, global = -1.36301e-11, cumulative = 2.24522e-07
GAMG:  Solving for p, Initial residual = 0.00347874, Final residual = 9.94932e-07, No Iterations 53
time step continuity errors : sum local = 1.27514e-12, global = -2.21058e-14, cumulative = 2.24522e-07
smoothSolver:  Solving for epsilon, Initial residual = 9.24825e-06, Final residual = 9.24825e-06, No Iterations 0
smoothSolver:  Solving for k, Initial residual = 3.21709e-05, Final residual = 6.52878e-06, No Iterations 1
ExecutionTime = 0.79 s  ClockTime = 0 s

Time = 0.00059

Courant Number mean: 0.00098945 max: 0.72489
smoothSolver:  Solving for Ux, Initial residual = 0.00135142, Final residual = 3.05208e-06, No Iterations 1
smoothSolver:  Solving for Uy, Initial residual = 0.00143903, Final residual = 3.60004e-06, No Iterations 1
GAMG:  Solving for p, Initial residual = 0.0118142, Final residual = 0.000819125, No Iterations 2
time step continuity errors : sum local = 1.04279e-09, global = -1.36888e-11, cumulative = 2.24508e-07
GAMG:  Solving for p, Initial residual = 0.0030089, Final residual = 9.50815e-07, No Iterations 49
time step continuity errors : sum local = 1.20689e-12, global = -2.27543e-14, cumulative = 2.24508e-07
smoothSolver:  Solving for epsilon, Initial residual = 9.51069e-06, Final residual = 9.51069e-06, No Iterations 0
smoothSolver:  Solving for k, Initial residual = 3.24028e-05, Final residual = 6.68081e-06, No Iterations 1
ExecutionTime = 0.81 s  ClockTime = 0 s

Time = 0.0006

Courant Number mean: 0.000989432 max: 0.72615
smoothSolver:  Solving for Ux, Initial residual = 0.00132583, Final residual = 3.23465e-06, No Iterations 1
smoothSolver:  Solving for Uy, Initial residual = 0.00141959, Final residual = 3.58703e-06, No Iterations 1
GAMG:  Solving for p, Initial residual = 0.0117086, Final residual = 0.000706407, No Iterations 2
time step continuity errors : sum local = 8.91658e-10, global = -1.41927e-11, cumulative = 2.24494e-07
GAMG:  Solving for p, Initial residual = 0.00287961, Final residual = 9.2749e-07, No Iterations 44
time step continuity errors : sum local = 1.16787e-12, global = -2.53279e-14, cumulative = 2.24494e-07
smoothSolver:  Solving for epsilon, Initial residual = 9.8143e-06, Final residual = 9.8143e-06, No Iterations 0
smoothSolver:  Solving for k, Initial residual = 3.26455e-05, Final residual = 6.83854e-06, No Iterations 1
ExecutionTime = 0.82 s  ClockTime = 0 s

Time = 0.00061

Courant Number mean: 0.000989413 max: 0.727149
smoothSolver:  Solving for Ux, Initial residual = 0.00130085, Final residual = 3.31994e-06, No Iterations 1
smoothSolver:  Solving for Uy, Initial residual = 0.00140133, Final residual = 3.75412e-06, No Iterations 1
GAMG:  Solving for p, Initial residual = 0.0116555, Final residual = 0.000735968, No Iterations 2
time step continuity errors : sum local = 9.21861e-10, global = -1.30058e-11, cumulative = 2.24481e-07
GAMG:  Solving for p, Initial residual = 0.00299556, Final residual = 9.91967e-07, No Iterations 44
time step continuity errors : sum local = 1.23978e-12, global = -2.86411e-14, cumulative = 2.24481e-07
smoothSolver:  Solving for epsilon, Initial residual = 1.01537e-05, Final residual = 3.49443e-06, No Iterations 1
smoothSolver:  Solving for k, Initial residual = 3.28698e-05, Final residual = 6.98821e-06, No Iterations 1
ExecutionTime = 0.83 s  ClockTime = 0 s

Time = 0.00062

Courant Number mean: 0.000989395 max: 0.727635
smoothSolver:  Solving for Ux, Initial residual = 0.00127631, Final residual = 3.29088e-06, No Iterations 1
smoothSolver:  Solving for Uy, Initial residual = 0.00138172, Final residual = 3.3271e-06, No Iterations 1
GAMG:  Solving for p, Initial residual = 0.0138784, Final residual = 0.00110133, No Iterations 2
time step continuity errors : sum local = 1.36837e-09, global = -1.14278e-11, cumulative = 2.2447e-07
GAMG:  Solving for p, Initial residual = 0.00386135, Final residual = 9.02791e-07, No Iterations 56
time step continuity errors : sum local = 1.11053e-12, global = -1.89708e-14, cumulative = 2.2447e-07
smoothSolver:  Solving for epsilon, Initial residual = 9.14001e-06, Final residual = 9.14001e-06, No Iterations 0
smoothSolver:  Solving for k, Initial residual = 3.13288e-05, Final residual = 6.34065e-06, No Iterations 1
ExecutionTime = 0.85 s  ClockTime = 0 s

Time = 0.00063

Courant Number mean: 0.000989378 max: 0.727947
smoothSolver:  Solving for Ux, Initial residual = 0.00125186, Final residual = 3.14404e-06, No Iterations 1
smoothSolver:  Solving for Uy, Initial residual = 0.00136439, Final residual = 3.75116e-06, No Iterations 1
GAMG:  Solving for p, Initial residual = 0.0114664, Final residual = 0.000829753, No Iterations 2
time step continuity errors : sum local = 1.01406e-09, global = -1.18754e-11, cumulative = 2.24458e-07
GAMG:  Solving for p, Initial residual = 0.00300305, Final residual = 9.32685e-07, No Iterations 51
time step continuity errors : sum local = 1.13698e-12, global = -2.07124e-14, cumulative = 2.24458e-07
smoothSolver:  Solving for epsilon, Initial residual = 9.37515e-06, Final residual = 9.37515e-06, No Iterations 0
smoothSolver:  Solving for k, Initial residual = 3.15753e-05, Final residual = 6.484e-06, No Iterations 1
ExecutionTime = 0.87 s  ClockTime = 1 s

Time = 0.00064

Courant Number mean: 0.00098936 max: 0.728499
smoothSolver:  Solving for Ux, Initial residual = 0.00122925, Final residual = 3.31238e-06, No Iterations 1
smoothSolver:  Solving for Uy, Initial residual = 0.0013474, Final residual = 3.73075e-06, No Iterations 1
GAMG:  Solving for p, Initial residual = 0.0111074, Final residual = 0.000699322, No Iterations 2
time step continuity errors : sum local = 8.47997e-10, global = -1.18734e-11, cumulative = 2.24446e-07
GAMG:  Solving for p, Initial residual = 0.00289513, Final residual = 9.39294e-07, No Iterations 45
time step continuity errors : sum local = 1.13675e-12, global = -2.42786e-14, cumulative = 2.24446e-07
smoothSolver:  Solving for epsilon, Initial residual = 9.64601e-06, Final residual = 9.64601e-06, No Iterations 0
smoothSolver:  Solving for k, Initial residual = 3.1852e-05, Final residual = 6.63679e-06, No Iterations 1
ExecutionTime = 0.88 s  ClockTime = 1 s

Time = 0.00065

Courant Number mean: 0.000989341 max: 0.728707
smoothSolver:  Solving for Ux, Initial residual = 0.00120712, Final residual = 3.39202e-06, No Iterations 1
smoothSolver:  Solving for Uy, Initial residual = 0.00133153, Final residual = 3.88521e-06, No Iterations 1
GAMG:  Solving for p, Initial residual = 0.0111858, Final residual = 0.000728196, No Iterations 2
time step continuity errors : sum local = 8.77005e-10, global = -1.13579e-11, cumulative = 2.24434e-07
GAMG:  Solving for p, Initial residual = 0.00299758, Final residual = 9.16837e-07, No Iterations 46
time step continuity errors : sum local = 1.10237e-12, global = -2.47544e-14, cumulative = 2.24434e-07
smoothSolver:  Solving for epsilon, Initial residual = 9.94726e-06, Final residual = 9.94726e-06, No Iterations 0
smoothSolver:  Solving for k, Initial residual = 3.21619e-05, Final residual = 6.79456e-06, No Iterations 1
ExecutionTime = 0.9 s  ClockTime = 1 s

Time = 0.00066

Courant Number mean: 0.000989322 max: 0.728316
smoothSolver:  Solving for Ux, Initial residual = 0.00118582, Final residual = 3.50644e-06, No Iterations 1
smoothSolver:  Solving for Uy, Initial residual = 0.00131603, Final residual = 4.00365e-06, No Iterations 1
GAMG:  Solving for p, Initial residual = 0.0113044, Final residual = 0.000736748, No Iterations 2
time step continuity errors : sum local = 8.81486e-10, global = -1.05666e-11, cumulative = 2.24424e-07
GAMG:  Solving for p, Initial residual = 0.00311721, Final residual = 9.434e-07, No Iterations 46
time step continuity errors : sum local = 1.12722e-12, global = -2.53201e-14, cumulative = 2.24424e-07
smoothSolver:  Solving for epsilon, Initial residual = 1.02775e-05, Final residual = 3.54289e-06, No Iterations 1
smoothSolver:  Solving for k, Initial residual = 3.24918e-05, Final residual = 6.95553e-06, No Iterations 1
ExecutionTime = 0.91 s  ClockTime = 1 s

Time = 0.00067

Courant Number mean: 0.000989302 max: 0.727513
smoothSolver:  Solving for Ux, Initial residual = 0.00116445, Final residual = 3.44034e-06, No Iterations 1
smoothSolver:  Solving for Uy, Initial residual = 0.00129943, Final residual = 3.5955e-06, No Iterations 1
GAMG:  Solving for p, Initial residual = 0.0143765, Final residual = 0.00137637, No Iterations 2
time step continuity errors : sum local = 1.63673e-09, global = -9.1383e-12, cumulative = 2.24415e-07
GAMG:  Solving for p, Initial residual = 0.00433544, Final residual = 9.13197e-07, No Iterations 59
time step continuity errors : sum local = 1.0756e-12, global = -1.80877e-14, cumulative = 2.24415e-07
smoothSolver:  Solving for epsilon, Initial residual = 9.19099e-06, Final residual = 9.19099e-06, No Iterations 0
smoothSolver:  Solving for k, Initial residual = 3.10766e-05, Final residual = 6.34473e-06, No Iterations 1
ExecutionTime = 0.93 s  ClockTime = 1 s

Time = 0.00068

Courant Number mean: 0.000989283 max: 0.726913
smoothSolver:  Solving for Ux, Initial residual = 0.00114352, Final residual = 3.35534e-06, No Iterations 1
smoothSolver:  Solving for Uy, Initial residual = 0.00128479, Final residual = 3.98975e-06, No Iterations 1
GAMG:  Solving for p, Initial residual = 0.0116713, Final residual = 0.00091214, No Iterations 2
time step continuity errors : sum local = 1.06754e-09, global = -9.6918e-12, cumulative = 2.24405e-07
GAMG:  Solving for p, Initial residual = 0.00315991, Final residual = 9.70499e-07, No Iterations 53
time step continuity errors : sum local = 1.13398e-12, global = -2.07978e-14, cumulative = 2.24405e-07
smoothSolver:  Solving for epsilon, Initial residual = 9.41318e-06, Final residual = 9.41318e-06, No Iterations 0
smoothSolver:  Solving for k, Initial residual = 3.14281e-05, Final residual = 6.51305e-06, No Iterations 1
ExecutionTime = 0.94 s  ClockTime = 1 s

Time = 0.00069

Courant Number mean: 0.000989263 max: 0.726787
smoothSolver:  Solving for Ux, Initial residual = 0.00112416, Final residual = 3.52272e-06, No Iterations 1
smoothSolver:  Solving for Uy, Initial residual = 0.00127061, Final residual = 3.98406e-06, No Iterations 1
GAMG:  Solving for p, Initial residual = 0.0113628, Final residual = 0.000737706, No Iterations 2
time step continuity errors : sum local = 8.58128e-10, global = -9.66211e-12, cumulative = 2.24395e-07
GAMG:  Solving for p, Initial residual = 0.00311462, Final residual = 9.25632e-07, No Iterations 47
time step continuity errors : sum local = 1.07567e-12, global = -2.5043e-14, cumulative = 2.24395e-07
smoothSolver:  Solving for epsilon, Initial residual = 9.66752e-06, Final residual = 9.66752e-06, No Iterations 0
smoothSolver:  Solving for k, Initial residual = 3.18378e-05, Final residual = 6.70003e-06, No Iterations 1
ExecutionTime = 0.96 s  ClockTime = 1 s

Time = 0.0007

Courant Number mean: 0.000989242 max: 0.72614
smoothSolver:  Solving for Ux, Initial residual = 0.0011054, Final residual = 3.62281e-06, No Iterations 1
smoothSolver:  Solving for Uy, Initial residual = 0.00125755, Final residual = 4.16393e-06, No Iterations 1
GAMG:  Solving for p, Initial residual = 0.0115055, Final residual = 0.000769664, No Iterations 2
time step continuity errors : sum local = 8.9058e-10, global = -1.01254e-11, cumulative = 2.24385e-07
GAMG:  Solving for p, Initial residual = 0.00322494, Final residual = 9.95501e-07, No Iterations 47
time step continuity errors : sum local = 1.15114e-12, global = -2.79859e-14, cumulative = 2.24385e-07
smoothSolver:  Solving for epsilon, Initial residual = 9.94894e-06, Final residual = 9.94894e-06, No Iterations 0
smoothSolver:  Solving for k, Initial residual = 3.22736e-05, Final residual = 6.89746e-06, No Iterations 1
ExecutionTime = 0.98 s  ClockTime = 1 s

Time = 0.00071

Courant Number mean: 0.00098922 max: 0.724961
smoothSolver:  Solving for Ux, Initial residual = 0.00108728, Final residual = 3.77242e-06, No Iterations 1
smoothSolver:  Solving for Uy, Initial residual = 0.00124484, Final residual = 4.33168e-06, No Iterations 1
GAMG:  Solving for p, Initial residual = 0.0116954, Final residual = 0.000784918, No Iterations 2
time step continuity errors : sum local = 9.03788e-10, global = -9.52488e-12, cumulative = 2.24376e-07
GAMG:  Solving for p, Initial residual = 0.00336424, Final residual = 9.29735e-07, No Iterations 48
time step continuity errors : sum local = 1.07004e-12, global = -2.5882e-14, cumulative = 2.24376e-07
smoothSolver:  Solving for epsilon, Initial residual = 1.02569e-05, Final residual = 3.5611e-06, No Iterations 1
smoothSolver:  Solving for k, Initial residual = 3.27077e-05, Final residual = 7.10044e-06, No Iterations 1
ExecutionTime = 0.99 s  ClockTime = 1 s

Time = 0.00072

Courant Number mean: 0.000989198 max: 0.723224
smoothSolver:  Solving for Ux, Initial residual = 0.00106868, Final residual = 3.67654e-06, No Iterations 1
smoothSolver:  Solving for Uy, Initial residual = 0.00123087, Final residual = 4.00134e-06, No Iterations 1
GAMG:  Solving for p, Initial residual = 0.0150282, Final residual = 0.00123623, No Iterations 3
time step continuity errors : sum local = 1.41708e-09, global = -6.12901e-12, cumulative = 2.24369e-07
GAMG:  Solving for p, Initial residual = 0.00535973, Final residual = 9.47861e-07, No Iterations 61
time step continuity errors : sum local = 1.07613e-12, global = -1.7802e-14, cumulative = 2.24369e-07
smoothSolver:  Solving for epsilon, Initial residual = 9.16599e-06, Final residual = 9.16599e-06, No Iterations 0
smoothSolver:  Solving for k, Initial residual = 3.13443e-05, Final residual = 6.5081e-06, No Iterations 1
ExecutionTime = 1.01 s  ClockTime = 1 s

Time = 0.00073

Courant Number mean: 0.000989177 max: 0.722642
smoothSolver:  Solving for Ux, Initial residual = 0.00105042, Final residual = 3.67285e-06, No Iterations 1
smoothSolver:  Solving for Uy, Initial residual = 0.00121862, Final residual = 4.38453e-06, No Iterations 1
GAMG:  Solving for p, Initial residual = 0.0119224, Final residual = 0.000966816, No Iterations 2
time step continuity errors : sum local = 1.09128e-09, global = -9.39326e-12, cumulative = 2.2436e-07
GAMG:  Solving for p, Initial residual = 0.00334372, Final residual = 9.77021e-07, No Iterations 55
time step continuity errors : sum local = 1.10213e-12, global = -1.98675e-14, cumulative = 2.2436e-07
smoothSolver:  Solving for epsilon, Initial residual = 9.37013e-06, Final residual = 9.37013e-06, No Iterations 0
smoothSolver:  Solving for k, Initial residual = 3.16881e-05, Final residual = 6.69908e-06, No Iterations 1
ExecutionTime = 1.03 s  ClockTime = 1 s

Time = 0.00074

Courant Number mean: 0.000989156 max: 0.722383
smoothSolver:  Solving for Ux, Initial residual = 0.00103347, Final residual = 3.82392e-06, No Iterations 1
smoothSolver:  Solving for Uy, Initial residual = 0.00120687, Final residual = 4.43363e-06, No Iterations 1
GAMG:  Solving for p, Initial residual = 0.0113109, Final residual = 0.000753854, No Iterations 2
time step continuity errors : sum local = 8.46771e-10, global = -8.8704e-12, cumulative = 2.24351e-07
GAMG:  Solving for p, Initial residual = 0.00324009, Final residual = 9.47262e-07, No Iterations 49
time step continuity errors : sum local = 1.06368e-12, global = -2.3584e-14, cumulative = 2.24351e-07
smoothSolver:  Solving for epsilon, Initial residual = 9.60319e-06, Final residual = 9.60319e-06, No Iterations 0
smoothSolver:  Solving for k, Initial residual = 3.21106e-05, Final residual = 6.90356e-06, No Iterations 1
ExecutionTime = 1.04 s  ClockTime = 1 s

Time = 0.00075

Courant Number mean: 0.000989133 max: 0.721528
smoothSolver:  Solving for Ux, Initial residual = 0.00101694, Final residual = 3.91422e-06, No Iterations 1
smoothSolver:  Solving for Uy, Initial residual = 0.00119602, Final residual = 4.65417e-06, No Iterations 1
GAMG:  Solving for p, Initial residual = 0.011291, Final residual = 0.000777917, No Iterations 2
time step continuity errors : sum local = 8.70097e-10, global = -8.38398e-12, cumulative = 2.24343e-07
GAMG:  Solving for p, Initial residual = 0.00326516, Final residual = 9.74147e-07, No Iterations 49
time step continuity errors : sum local = 1.08959e-12, global = -2.32181e-14, cumulative = 2.24343e-07
smoothSolver:  Solving for epsilon, Initial residual = 9.86189e-06, Final residual = 9.86189e-06, No Iterations 0
smoothSolver:  Solving for k, Initial residual = 3.2541e-05, Final residual = 7.1122e-06, No Iterations 1
ExecutionTime = 1.06 s  ClockTime = 1 s

Time = 0.00076

Courant Number mean: 0.00098911 max: 0.719976
smoothSolver:  Solving for Ux, Initial residual = 0.00100097, Final residual = 4.04851e-06, No Iterations 1
smoothSolver:  Solving for Uy, Initial residual = 0.00118537, Final residual = 4.85507e-06, No Iterations 1
GAMG:  Solving for p, Initial residual = 0.0113983, Final residual = 0.000774755, No Iterations 2
time step continuity errors : sum local = 8.63032e-10, global = -8.15956e-12, cumulative = 2.24335e-07
GAMG:  Solving for p, Initial residual = 0.00331791, Final residual = 9.29428e-07, No Iterations 50
time step continuity errors : sum local = 1.03535e-12, global = -2.0858e-14, cumulative = 2.24334e-07
smoothSolver:  Solving for epsilon, Initial residual = 1.0145e-05, Final residual = 3.54273e-06, No Iterations 1
bounding epsilon, min: -0.0559006 max: 33573.2 average: 158.157
smoothSolver:  Solving for k, Initial residual = 3.29594e-05, Final residual = 7.31981e-06, No Iterations 1
ExecutionTime = 1.07 s  ClockTime = 1 s

Time = 0.00077

Courant Number mean: 0.000989085 max: 0.717843
smoothSolver:  Solving for Ux, Initial residual = 0.000984769, Final residual = 3.96586e-06, No Iterations 1
smoothSolver:  Solving for Uy, Initial residual = 0.00117394, Final residual = 5.03717e-06, No Iterations 1
GAMG:  Solving for p, Initial residual = 0.016459, Final residual = 0.0015489, No Iterations 3
time step continuity errors : sum local = 1.72014e-09, global = -4.86226e-12, cumulative = 2.2433e-07
GAMG:  Solving for p, Initial residual = 0.0070492, Final residual = 9.43165e-07, No Iterations 67
time step continuity errors : sum local = 1.03782e-12, global = -1.70897e-14, cumulative = 2.2433e-07
smoothSolver:  Solving for epsilon, Initial residual = 9.09603e-06, Final residual = 9.09603e-06, No Iterations 0
smoothSolver:  Solving for k, Initial residual = 3.17397e-05, Final residual = 6.75551e-06, No Iterations 1
ExecutionTime = 1.09 s  ClockTime = 1 s

Time = 0.00078

Courant Number mean: 0.000989063 max: 0.718361
smoothSolver:  Solving for Ux, Initial residual = 0.000968694, Final residual = 4.01117e-06, No Iterations 1
smoothSolver:  Solving for Uy, Initial residual = 0.00116298, Final residual = 5.04123e-06, No Iterations 1
GAMG:  Solving for p, Initial residual = 0.0126816, Final residual = 0.00108452, No Iterations 2
time step continuity errors : sum local = 1.18622e-09, global = -7.87823e-12, cumulative = 2.24322e-07
GAMG:  Solving for p, Initial residual = 0.00393485, Final residual = 9.75511e-07, No Iterations 58
time step continuity errors : sum local = 1.06675e-12, global = -1.78836e-14, cumulative = 2.24322e-07
smoothSolver:  Solving for epsilon, Initial residual = 9.28271e-06, Final residual = 9.28271e-06, No Iterations 0
smoothSolver:  Solving for k, Initial residual = 3.19699e-05, Final residual = 6.94191e-06, No Iterations 1
ExecutionTime = 1.11 s  ClockTime = 1 s

Time = 0.00079

Courant Number mean: 0.00098904 max: 0.718731
smoothSolver:  Solving for Ux, Initial residual = 0.000953687, Final residual = 4.09962e-06, No Iterations 1
smoothSolver:  Solving for Uy, Initial residual = 0.00115223, Final residual = 5.06363e-06, No Iterations 1
GAMG:  Solving for p, Initial residual = 0.0117719, Final residual = 0.000819084, No Iterations 2
time step continuity errors : sum local = 8.92117e-10, global = -7.62746e-12, cumulative = 2.24314e-07
GAMG:  Solving for p, Initial residual = 0.00361127, Final residual = 9.78508e-07, No Iterations 54
time step continuity errors : sum local = 1.06585e-12, global = -2.07e-14, cumulative = 2.24314e-07
smoothSolver:  Solving for epsilon, Initial residual = 9.49534e-06, Final residual = 9.49534e-06, No Iterations 0
smoothSolver:  Solving for k, Initial residual = 3.23699e-05, Final residual = 7.14715e-06, No Iterations 1
ExecutionTime = 1.13 s  ClockTime = 1 s

Time = 0.0008

Courant Number mean: 0.000989016 max: 0.718124
smoothSolver:  Solving for Ux, Initial residual = 0.000939357, Final residual = 4.17156e-06, No Iterations 1
smoothSolver:  Solving for Uy, Initial residual = 0.00114261, Final residual = 5.28526e-06, No Iterations 1
GAMG:  Solving for p, Initial residual = 0.0114777, Final residual = 0.000795383, No Iterations 2
time step continuity errors : sum local = 8.63035e-10, global = -6.87419e-12, cumulative = 2.24307e-07
GAMG:  Solving for p, Initial residual = 0.00340379, Final residual = 9.05203e-07, No Iterations 51
time step continuity errors : sum local = 9.82445e-13, global = -1.69027e-14, cumulative = 2.24307e-07
smoothSolver:  Solving for epsilon, Initial residual = 9.73162e-06, Final residual = 9.73162e-06, No Iterations 0
smoothSolver:  Solving for k, Initial residual = 3.28124e-05, Final residual = 7.36224e-06, No Iterations 1
ExecutionTime = 1.14 s  ClockTime = 1 s

Time = 0.00081

Courant Number mean: 0.000988992 max: 0.716676
smoothSolver:  Solving for Ux, Initial residual = 0.00092542, Final residual = 4.30849e-06, No Iterations 1
smoothSolver:  Solving for Uy, Initial residual = 0.00113309, Final residual = 5.48737e-06, No Iterations 1
GAMG:  Solving for p, Initial residual = 0.01142, Final residual = 0.000786201, No Iterations 2
time step continuity errors : sum local = 8.50157e-10, global = -6.68154e-12, cumulative = 2.243e-07
GAMG:  Solving for p, Initial residual = 0.00338143, Final residual = 9.94804e-07, No Iterations 52
time step continuity errors : sum local = 1.07632e-12, global = -1.70347e-14, cumulative = 2.243e-07
smoothSolver:  Solving for epsilon, Initial residual = 9.99063e-06, Final residual = 9.99063e-06, No Iterations 0
smoothSolver:  Solving for k, Initial residual = 3.32638e-05, Final residual = 7.58125e-06, No Iterations 1
ExecutionTime = 1.16 s  ClockTime = 1 s

Time = 0.00082

Courant Number mean: 0.000988966 max: 0.714618
smoothSolver:  Solving for Ux, Initial residual = 0.000911963, Final residual = 4.44009e-06, No Iterations 1
smoothSolver:  Solving for Uy, Initial residual = 0.00112405, Final residual = 5.7052e-06, No Iterations 1
GAMG:  Solving for p, Initial residual = 0.0114865, Final residual = 0.000777383, No Iterations 2
time step continuity errors : sum local = 8.37996e-10, global = -6.22972e-12, cumulative = 2.24294e-07
GAMG:  Solving for p, Initial residual = 0.0034444, Final residual = 9.07804e-07, No Iterations 52
time step continuity errors : sum local = 9.79254e-13, global = -1.34641e-14, cumulative = 2.24294e-07
smoothSolver:  Solving for epsilon, Initial residual = 1.0272e-05, Final residual = 3.6186e-06, No Iterations 1
bounding epsilon, min: -2.77201 max: 35874.9 average: 170.897
smoothSolver:  Solving for k, Initial residual = 3.37027e-05, Final residual = 7.79566e-06, No Iterations 1
ExecutionTime = 1.17 s  ClockTime = 1 s

Time = 0.00083

Courant Number mean: 0.000988939 max: 0.71204
smoothSolver:  Solving for Ux, Initial residual = 0.000897929, Final residual = 4.33304e-06, No Iterations 1
smoothSolver:  Solving for Uy, Initial residual = 0.00111247, Final residual = 5.15739e-06, No Iterations 1
GAMG:  Solving for p, Initial residual = 0.016123, Final residual = 0.00155765, No Iterations 3
time step continuity errors : sum local = 1.67483e-09, global = -3.76942e-12, cumulative = 2.2429e-07
GAMG:  Solving for p, Initial residual = 0.00624138, Final residual = 9.89716e-07, No Iterations 65
time step continuity errors : sum local = 1.05283e-12, global = -1.8558e-14, cumulative = 2.2429e-07
smoothSolver:  Solving for epsilon, Initial residual = 9.14024e-06, Final residual = 9.14024e-06, No Iterations 0
smoothSolver:  Solving for k, Initial residual = 3.21949e-05, Final residual = 7.14394e-06, No Iterations 1
ExecutionTime = 1.19 s  ClockTime = 1 s

Time = 0.00084

Courant Number mean: 0.000988915 max: 0.710193
[...]
GAMG:  Solving for p, Initial residual = 0.0342352, Final residual = 0.00267554, No Iterations 3
time step continuity errors : sum local = 2.56706e-09, global = 1.38234e-13, cumulative = 2.2423e-07
GAMG:  Solving for p, Initial residual = 0.0186842, Final residual = 9.91011e-07, No Iterations 114
time step continuity errors : sum local = 9.41064e-13, global = 1.74014e-14, cumulative = 2.2423e-07
smoothSolver:  Solving for epsilon, Initial residual = 9.17305e-06, Final residual = 9.17305e-06, No Iterations 0
smoothSolver:  Solving for k, Initial residual = 5.57343e-05, Final residual = 8.87032e-06, No Iterations 2
ExecutionTime = 2.16 s  ClockTime = 2 s

Time = 0.00133

Courant Number mean: 0.000986613 max: 0.599406
smoothSolver:  Solving for Ux, Initial residual = 0.000521581, Final residual = 4.73005e-06, No Iterations 2
smoothSolver:  Solving for Uy, Initial residual = 0.000937531, Final residual = 7.47289e-06, No Iterations 3
GAMG:  Solving for p, Initial residual = 0.0282872, Final residual = 0.00233136, No Iterations 3
time step continuity errors : sum local = 2.20427e-09, global = 3.68035e-12, cumulative = 2.24234e-07
GAMG:  Solving for p, Initial residual = 0.0185112, Final residual = 9.77695e-07, No Iterations 106
time step continuity errors : sum local = 9.30929e-13, global = -2.30172e-14, cumulative = 2.24234e-07
smoothSolver:  Solving for epsilon, Initial residual = 9.33672e-06, Final residual = 9.33672e-06, No Iterations 0
smoothSolver:  Solving for k, Initial residual = 5.76927e-05, Final residual = 9.71698e-06, No Iterations 2
ExecutionTime = 2.19 s  ClockTime = 2 s

Time = 0.00134

Courant Number mean: 0.000986509 max: 0.598149
smoothSolver:  Solving for Ux, Initial residual = 0.000522065, Final residual = 5.20916e-06, No Iterations 2
smoothSolver:  Solving for Uy, Initial residual = 0.00094368, Final residual = 7.70207e-06, No Iterations 3
GAMG:  Solving for p, Initial residual = 0.0330349, Final residual = 0.00254789, No Iterations 3
time step continuity errors : sum local = 2.41661e-09, global = 2.74727e-12, cumulative = 2.24237e-07
GAMG:  Solving for p, Initial residual = 0.0231671, Final residual = 9.68082e-07, No Iterations 119
time step continuity errors : sum local = 9.26177e-13, global = 1.40342e-14, cumulative = 2.24237e-07
smoothSolver:  Solving for epsilon, Initial residual = 9.52404e-06, Final residual = 9.52404e-06, No Iterations 0
smoothSolver:  Solving for k, Initial residual = 5.97531e-05, Final residual = 5.70903e-06, No Iterations 3
ExecutionTime = 2.21 s  ClockTime = 2 s

Time = 0.00135

Courant Number mean: 0.000986398 max: 0.596572
smoothSolver:  Solving for Ux, Initial residual = 0.000520518, Final residual = 6.03447e-06, No Iterations 2
smoothSolver:  Solving for Uy, Initial residual = 0.000950505, Final residual = 9.15577e-06, No Iterations 3
GAMG:  Solving for p, Initial residual = 0.0356368, Final residual = 0.00295096, No Iterations 3
time step continuity errors : sum local = 2.80789e-09, global = 3.77026e-12, cumulative = 2.24241e-07
GAMG:  Solving for p, Initial residual = 0.0285471, Final residual = 9.60609e-07, No Iterations 114
time step continuity errors : sum local = 9.22606e-13, global = -1.52224e-14, cumulative = 2.24241e-07
smoothSolver:  Solving for epsilon, Initial residual = 9.74724e-06, Final residual = 9.74724e-06, No Iterations 0
smoothSolver:  Solving for k, Initial residual = 6.22125e-05, Final residual = 6.5454e-06, No Iterations 3
ExecutionTime = 2.24 s  ClockTime = 2 s

Time = 0.00136

Courant Number mean: 0.00098628 max: 0.594983
smoothSolver:  Solving for Ux, Initial residual = 0.000522304, Final residual = 6.92044e-06, No Iterations 2
smoothSolver:  Solving for Uy, Initial residual = 0.000958417, Final residual = 5.68e-06, No Iterations 4
GAMG:  Solving for p, Initial residual = 0.0428439, Final residual = 0.00370596, No Iterations 3
time step continuity errors : sum local = 3.53859e-09, global = 2.82128e-12, cumulative = 2.24243e-07
GAMG:  Solving for p, Initial residual = 0.0358228, Final residual = 9.62243e-07, No Iterations 116
time step continuity errors : sum local = 9.28637e-13, global = 1.38195e-14, cumulative = 2.24244e-07
smoothSolver:  Solving for epsilon, Initial residual = 1.00218e-05, Final residual = 3.87078e-06, No Iterations 1
smoothSolver:  Solving for k, Initial residual = 6.47599e-05, Final residual = 7.47735e-06, No Iterations 3
ExecutionTime = 2.27 s  ClockTime = 2 s

Time = 0.00137

Courant Number mean: 0.000986153 max: 0.593309
smoothSolver:  Solving for Ux, Initial residual = 0.000523207, Final residual = 7.9571e-06, No Iterations 2
smoothSolver:  Solving for Uy, Initial residual = 0.000957117, Final residual = 9.20947e-06, No Iterations 3
GAMG:  Solving for p, Initial residual = 0.0596341, Final residual = 0.00550445, No Iterations 3
time step continuity errors : sum local = 5.29191e-09, global = 3.14938e-12, cumulative = 2.24247e-07
GAMG:  Solving for p, Initial residual = 0.0496316, Final residual = 9.54638e-07, No Iterations 111
time step continuity errors : sum local = 9.09112e-13, global = 6.85723e-15, cumulative = 2.24247e-07
smoothSolver:  Solving for epsilon, Initial residual = 9.17016e-06, Final residual = 9.17016e-06, No Iterations 0
smoothSolver:  Solving for k, Initial residual = 6.33487e-05, Final residual = 7.33148e-06, No Iterations 3
ExecutionTime = 2.3 s  ClockTime = 2 s

Time = 0.00138

Courant Number mean: 0.000986033 max: 0.591206
smoothSolver:  Solving for Ux, Initial residual = 0.000516957, Final residual = 8.52481e-06, No Iterations 2
smoothSolver:  Solving for Uy, Initial residual = 0.000959569, Final residual = 6.5211e-06, No Iterations 4
GAMG:  Solving for p, Initial residual = 0.0578626, Final residual = 0.00536397, No Iterations 3
time step continuity errors : sum local = 5.07534e-09, global = 3.9507e-12, cumulative = 2.24251e-07
GAMG:  Solving for p, Initial residual = 0.0533125, Final residual = 9.93472e-07, No Iterations 105
time step continuity errors : sum local = 9.50963e-13, global = 1.248e-15, cumulative = 2.24251e-07
smoothSolver:  Solving for epsilon, Initial residual = 9.44245e-06, Final residual = 9.44245e-06, No Iterations 0
smoothSolver:  Solving for k, Initial residual = 6.57608e-05, Final residual = 8.28717e-06, No Iterations 3
ExecutionTime = 2.33 s  ClockTime = 2 s

Time = 0.00139

Courant Number mean: 0.000985905 max: 0.589792
smoothSolver:  Solving for Ux, Initial residual = 0.000523332, Final residual = 5.55102e-06, No Iterations 3
smoothSolver:  Solving for Uy, Initial residual = 0.000970928, Final residual = 6.70845e-06, No Iterations 4
GAMG:  Solving for p, Initial residual = 0.0713503, Final residual = 0.00682684, No Iterations 3
time step continuity errors : sum local = 6.52569e-09, global = -1.92381e-12, cumulative = 2.24249e-07
GAMG:  Solving for p, Initial residual = 0.0684782, Final residual = 9.79167e-07, No Iterations 123
time step continuity errors : sum local = 9.51328e-13, global = 7.18722e-15, cumulative = 2.24249e-07
smoothSolver:  Solving for epsilon, Initial residual = 9.90974e-06, Final residual = 9.90974e-06, No Iterations 0
smoothSolver:  Solving for k, Initial residual = 6.82297e-05, Final residual = 9.33951e-06, No Iterations 3
ExecutionTime = 2.36 s  ClockTime = 2 s

Time = 0.0014

Courant Number mean: 0.00098577 max: 0.587995
smoothSolver:  Solving for Ux, Initial residual = 0.000529354, Final residual = 7.09964e-06, No Iterations 3
smoothSolver:  Solving for Uy, Initial residual = 0.00098655, Final residual = 8.03887e-06, No Iterations 4
GAMG:  Solving for p, Initial residual = 0.0885078, Final residual = 0.00836683, No Iterations 4
time step continuity errors : sum local = 8.12344e-09, global = -8.44902e-12, cumulative = 2.2424e-07
GAMG:  Solving for p, Initial residual = 0.0956489, Final residual = 9.99182e-07, No Iterations 129
time step continuity errors : sum local = 9.92387e-13, global = 8.61849e-15, cumulative = 2.2424e-07
smoothSolver:  Solving for epsilon, Initial residual = 1.06956e-05, Final residual = 4.29505e-06, No Iterations 1
smoothSolver:  Solving for k, Initial residual = 7.06523e-05, Final residual = 6.68344e-06, No Iterations 4
ExecutionTime = 2.39 s  ClockTime = 2 s

Time = 0.00141

Courant Number mean: 0.000985629 max: 0.586006
smoothSolver:  Solving for Ux, Initial residual = 0.0005423, Final residual = 6.38416e-06, No Iterations 4
smoothSolver:  Solving for Uy, Initial residual = 0.000998155, Final residual = 7.6918e-06, No Iterations 4
GAMG:  Solving for p, Initial residual = 0.137474, Final residual = 0.0137015, No Iterations 5
time step continuity errors : sum local = 1.38352e-08, global = -6.02032e-11, cumulative = 2.2418e-07
GAMG:  Solving for p, Initial residual = 0.165295, Final residual = 9.95833e-07, No Iterations 153
time step continuity errors : sum local = 1.03447e-12, global = 5.19788e-15, cumulative = 2.2418e-07
smoothSolver:  Solving for epsilon, Initial residual = 9.4852e-06, Final residual = 9.4852e-06, No Iterations 0
smoothSolver:  Solving for k, Initial residual = 6.91731e-05, Final residual = 6.71491e-06, No Iterations 4
ExecutionTime = 2.43 s  ClockTime = 2 s

Time = 0.00142

Courant Number mean: 0.000985489 max: 0.58282
smoothSolver:  Solving for Ux, Initial residual = 0.00056477, Final residual = 8.12679e-06, No Iterations 5
smoothSolver:  Solving for Uy, Initial residual = 0.00102701, Final residual = 7.0786e-06, No Iterations 5
GAMG:  Solving for p, Initial residual = 0.214313, Final residual = 0.0210453, No Iterations 6
time step continuity errors : sum local = 2.2422e-08, global = -1.50303e-10, cumulative = 2.2403e-07
GAMG:  Solving for p, Initial residual = 0.276184, Final residual = 9.89081e-07, No Iterations 180
time step continuity errors : sum local = 1.14874e-12, global = 1.07091e-16, cumulative = 2.2403e-07
smoothSolver:  Solving for epsilon, Initial residual = 9.8079e-06, Final residual = 9.8079e-06, No Iterations 0
smoothSolver:  Solving for k, Initial residual = 7.20969e-05, Final residual = 7.95816e-06, No Iterations 4
ExecutionTime = 2.47 s  ClockTime = 2 s

Time = 0.00143

Courant Number mean: 0.00098534 max: 0.579547
smoothSolver:  Solving for Ux, Initial residual = 0.000635076, Final residual = 9.52282e-06, No Iterations 7
smoothSolver:  Solving for Uy, Initial residual = 0.00109904, Final residual = 6.57842e-06, No Iterations 6
GAMG:  Solving for p, Initial residual = 0.361541, Final residual = 0.0343373, No Iterations 7
time step continuity errors : sum local = 4.27531e-08, global = -3.56772e-10, cumulative = 2.23673e-07
GAMG:  Solving for p, Initial residual = 0.445103, Final residual = 9.63317e-07, No Iterations 187
time step continuity errors : sum local = 1.43607e-12, global = -2.22856e-15, cumulative = 2.23673e-07
smoothSolver:  Solving for epsilon, Initial residual = 1.01621e-05, Final residual = 4.11178e-06, No Iterations 1
smoothSolver:  Solving for k, Initial residual = 7.82262e-05, Final residual = 7.77602e-06, No Iterations 5
ExecutionTime = 2.52 s  ClockTime = 2 s

Time = 0.00144

Courant Number mean: 0.000985178 max: 0.573919
smoothSolver:  Solving for Ux, Initial residual = 0.000793807, Final residual = 8.24781e-06, No Iterations 11
smoothSolver:  Solving for Uy, Initial residual = 0.00127652, Final residual = 9.25121e-06, No Iterations 7
GAMG:  Solving for p, Initial residual = 0.565251, Final residual = 0.0521915, No Iterations 8
time step continuity errors : sum local = 9.11349e-08, global = -8.79427e-10, cumulative = 2.22794e-07
GAMG:  Solving for p, Initial residual = 0.630404, Final residual = 9.87084e-07, No Iterations 218
time step continuity errors : sum local = 2.32599e-12, global = -5.84365e-15, cumulative = 2.22794e-07
smoothSolver:  Solving for epsilon, Initial residual = 9.85511e-06, Final residual = 9.85511e-06, No Iterations 0
smoothSolver:  Solving for k, Initial residual = 9.75523e-05, Final residual = 9.85768e-06, No Iterations 7
ExecutionTime = 2.57 s  ClockTime = 2 s

Time = 0.00145

Courant Number mean: 0.000985007 max: 0.562721
smoothSolver:  Solving for Ux, Initial residual = 0.00132071, Final residual = 9.60722e-06, No Iterations 25
smoothSolver:  Solving for Uy, Initial residual = 0.00180155, Final residual = 9.66381e-06, No Iterations 11
GAMG:  Solving for p, Initial residual = 0.709778, Final residual = 0.0699972, No Iterations 12
time step continuity errors : sum local = 1.95044e-07, global = -2.35511e-09, cumulative = 2.20438e-07
GAMG:  Solving for p, Initial residual = 0.720399, Final residual = 9.68056e-07, No Iterations 180
time step continuity errors : sum local = 4.47567e-12, global = 5.13e-14, cumulative = 2.20438e-07
smoothSolver:  Solving for epsilon, Initial residual = 1.16371e-05, Final residual = 5.02766e-06, No Iterations 1
smoothSolver:  Solving for k, Initial residual = 0.000214067, Final residual = 9.81132e-06, No Iterations 23
ExecutionTime = 2.61 s  ClockTime = 2 s

Time = 0.00146

Courant Number mean: 0.000984868 max: 0.545465
smoothSolver:  Solving for Ux, Initial residual = 0.00380897, Final residual = 9.87523e-06, No Iterations 80
smoothSolver:  Solving for Uy, Initial residual = 0.00397674, Final residual = 9.94133e-06, No Iterations 34
GAMG:  Solving for p, Initial residual = 0.79715, Final residual = 0.0784265, No Iterations 14
time step continuity errors : sum local = 4.01367e-07, global = -5.24209e-09, cumulative = 2.15196e-07
GAMG:  Solving for p, Initial residual = 0.718321, Final residual = 9.76815e-07, No Iterations 231
time step continuity errors : sum local = 9.47363e-12, global = 2.93418e-14, cumulative = 2.15196e-07
smoothSolver:  Solving for epsilon, Initial residual = 2.81889e-05, Final residual = 9.80619e-06, No Iterations 3
smoothSolver:  Solving for k, Initial residual = 0.000719311, Final residual = 9.83707e-06, No Iterations 93
ExecutionTime = 2.67 s  ClockTime = 2 s

Time = 0.00147

Courant Number mean: 0.000985644 max: 0.526031
smoothSolver:  Solving for Ux, Initial residual = 0.00804178, Final residual = 9.97403e-06, No Iterations 198
smoothSolver:  Solving for Uy, Initial residual = 0.00893635, Final residual = 9.82201e-06, No Iterations 69
GAMG:  Solving for p, Initial residual = 0.820945, Final residual = 0.0812007, No Iterations 15
time step continuity errors : sum local = 7.70039e-07, global = -6.39249e-09, cumulative = 2.08804e-07
GAMG:  Solving for p, Initial residual = 0.779095, Final residual = 9.99438e-07, No Iterations 312
time step continuity errors : sum local = 1.39949e-11, global = -6.18756e-14, cumulative = 2.08804e-07
smoothSolver:  Solving for epsilon, Initial residual = 0.000440246, Final residual = 9.8158e-06, No Iterations 126
smoothSolver:  Solving for k, Initial residual = 0.00209423, Final residual = 9.95766e-06, No Iterations 204
ExecutionTime = 2.77 s  ClockTime = 2 s

Time = 0.00148

Courant Number mean: 0.000987791 max: 0.489135
smoothSolver:  Solving for Ux, Initial residual = 0.0140348, Final residual = 9.45619e-06, No Iterations 56
smoothSolver:  Solving for Uy, Initial residual = 0.0220503, Final residual = 9.79695e-06, No Iterations 70
GAMG:  Solving for p, Initial residual = 0.856821, Final residual = 0.0782229, No Iterations 5
time step continuity errors : sum local = 4.12482e-06, global = -1.97762e-08, cumulative = 1.89028e-07
GAMG:  Solving for p, Initial residual = 0.769062, Final residual = 9.60857e-07, No Iterations 186
time step continuity errors : sum local = 7.48913e-11, global = -1.62259e-13, cumulative = 1.89028e-07
smoothSolver:  Solving for epsilon, Initial residual = 0.0120328, Final residual = 8.55622e-06, No Iterations 20
smoothSolver:  Solving for k, Initial residual = 0.0217034, Final residual = 9.41119e-06, No Iterations 51
ExecutionTime = 2.82 s  ClockTime = 3 s

Time = 0.00149

Courant Number mean: 0.0010143 max: 2.48233
smoothSolver:  Solving for Ux, Initial residual = 0.305433, Final residual = 9.88101e-06, No Iterations 128
smoothSolver:  Solving for Uy, Initial residual = 0.0928411, Final residual = 9.70937e-06, No Iterations 126
GAMG:  Solving for p, Initial residual = 0.932478, Final residual = 0.079221, No Iterations 5
time step continuity errors : sum local = 7.28468e-06, global = -3.51558e-08, cumulative = 1.53872e-07
GAMG:  Solving for p, Initial residual = 0.610049, Final residual = 9.86878e-07, No Iterations 221
time step continuity errors : sum local = 1.57202e-10, global = 4.02569e-14, cumulative = 1.53872e-07
smoothSolver:  Solving for epsilon, Initial residual = 0.00351553, Final residual = 9.70615e-06, No Iterations 83
smoothSolver:  Solving for k, Initial residual = 0.0314862, Final residual = 9.67674e-06, No Iterations 112
bounding k, min: -63.7129 max: 7707.99 average: 122.827
ExecutionTime = 2.88 s  ClockTime = 3 s

Time = 0.0015

Courant Number mean: 0.00100872 max: 11.899
smoothSolver:  Solving for Ux, Initial residual = 0.15921, Final residual = 9.97913e-06, No Iterations 377
smoothSolver:  Solving for Uy, Initial residual = 0.161658, Final residual = 1.03181e-05, No Iterations 1000
GAMG:  Solving for p, Initial residual = 0.875044, Final residual = 0.0753091, No Iterations 5
time step continuity errors : sum local = 1.9682e-05, global = -1.38283e-07, cumulative = 1.55892e-08
GAMG:  Solving for p, Initial residual = 0.541852, Final residual = 9.66542e-07, No Iterations 189
time step continuity errors : sum local = 5.48491e-10, global = -3.44374e-12, cumulative = 1.55858e-08
smoothSolver:  Solving for epsilon, Initial residual = 0.0447784, Final residual = 9.17386e-06, No Iterations 49
bounding epsilon, min: -119.87 max: 7.78364e+08 average: 3.47691e+06
smoothSolver:  Solving for k, Initial residual = 0.0319267, Final residual = 9.92228e-06, No Iterations 653
bounding k, min: -88.1193 max: 273134 average: 2311.02
ExecutionTime = 3 s  ClockTime = 3 s

Time = 0.00151

Courant Number mean: 0.00110229 max: 58.3598
smoothSolver:  Solving for Ux, Initial residual = 0.808053, Final residual = 0.000104079, No Iterations 1000
smoothSolver:  Solving for Uy, Initial residual = 0.861247, Final residual = 0.00304546, No Iterations 1000
GAMG:  Solving for p, Initial residual = 0.854225, Final residual = 0.0797706, No Iterations 8
time step continuity errors : sum local = 5.09414e-05, global = -8.12218e-07, cumulative = -7.96632e-07
GAMG:  Solving for p, Initial residual = 0.114097, Final residual = 9.71869e-07, No Iterations 171
time step continuity errors : sum local = 9.80826e-09, global = 1.0841e-11, cumulative = -7.96621e-07
smoothSolver:  Solving for epsilon, Initial residual = 0.32112, Final residual = 6.59867e+280, No Iterations 1000
bounding epsilon, min: -2.04875e+296 max: 2.75783e+295 average: -1.30728e+293
smoothSolver:  Solving for k, Initial residual = 0.0228098, Final residual = 2.04489e-283, No Iterations 1
bounding k, min: -226.808 max: 185549 average: 509.845
ExecutionTime = 3.15 s  ClockTime = 3 s

Time = 0.00152

Courant Number mean: 0.00182457 max: 95.3659
#0  Foam::error::printStack(Foam::Ostream&) at ??:?
#1  Foam::sigFpe::sigHandler(int) at ??:?
#2  ? in "/lib/x86_64-linux-gnu/libc.so.6"
#3  Foam::GaussSeidelSmoother::smooth(Foam::word const&, Foam::Field<double>&, Foam::lduMatrix const&, Foam::Field<double> const&, Foam::FieldField<Foam::Field, double> const&, Foam::UPtrList<Foam::lduInterfaceField const> const&, unsigned char, int) at ??:?
#4  Foam::GaussSeidelSmoother::smooth(Foam::Field<double>&, Foam::Field<double> const&, unsigned char, int) const at ??:?
#5  Foam::smoothSolver::solve(Foam::Field<double>&, Foam::Field<double> const&, unsigned char) const at ??:?
#6  ? in "/opt/openfoam8/platforms/linux64GccDPInt32Opt/bin/pisoFoam"
#7  ? in "/opt/openfoam8/platforms/linux64GccDPInt32Opt/bin/pisoFoam"
#8  ? in "/opt/openfoam8/platforms/linux64GccDPInt32Opt/bin/pisoFoam"
#9  ? in "/opt/openfoam8/platforms/linux64GccDPInt32Opt/bin/pisoFoam"
#10  __libc_start_main in "/lib/x86_64-linux-gnu/libc.so.6"
#11  ? in "/opt/openfoam8/platforms/linux64GccDPInt32Opt/bin/pisoFoam"
