/*---------------------------------------------------------------------------*\
  =========                 |
  \\      /  F ield         | OpenFOAM: The Open Source CFD Toolbox
   \\    /   O peration     | Website:  https://openfoam.org
    \\  /    A nd           | Version:  8
     \\/     M anipulation  |
\*---------------------------------------------------------------------------*/
Build  : 8-9b73cf21a682
Exec   : simpleFoam
Date   : Oct 03 2020
Time   : 18:50:21
Host   : "bnes"
PID    : 34944
I/O    : uncollated
Case   : /media/sbkim/2266B8F966B8CEB3/git/openfoam_seo/of/org/jbk_simple
nProcs : 1
sigFpe : Enabling floating point exception trapping (FOAM_SIGFPE).
fileModificationChecking : Monitoring run-time modified files using timeStampMaster (fileModificationSkew 10)
allowSystemOperations : Allowing user-supplied system call operations

// * * * * * * * * * * * * * * * * * * * * * * * * * * * * * * * * * * * * * //
Create time

Create mesh for time = 20000


SIMPLE: Convergence criteria found
        p: tolerance 0.01
        U: tolerance 0.001
        "(k|epsilon|omega|f|v2)": tolerance 0.001

Reading field p

Reading field U

Reading/calculating face flux field phi

Selecting incompressible transport model Newtonian
Selecting turbulence model type RAS
Selecting RAS turbulence model kEpsilon
RAS
{
    RASModel        kEpsilon;
    turbulence      on;
    printCoeffs     on;
    Cmu             0.09;
    C1              1.44;
    C2              1.92;
    C3              0;
    sigmak          1;
    sigmaEps        1.3;
}

No MRF models present

No finite volume options present

Starting time loop

Time = 20000

smoothSolver:  Solving for Ux, Initial residual = 0.000313744, Final residual = 2.71621e-05, No Iterations 2
smoothSolver:  Solving for Uy, Initial residual = 0.00201434, Final residual = 0.000112271, No Iterations 3
GAMG:  Solving for p, Initial residual = 0.000246203, Final residual = 2.22335e-05, No Iterations 8
time step continuity errors : sum local = 4.41417e-06, global = 9.02811e-09, cumulative = 9.02811e-09
smoothSolver:  Solving for epsilon, Initial residual = 0.00133661, Final residual = 6.69664e-05, No Iterations 3
smoothSolver:  Solving for k, Initial residual = 0.000170486, Final residual = 1.1489e-05, No Iterations 2
ExecutionTime = 0.1 s  ClockTime = 0 s

Time = 20000

smoothSolver:  Solving for Ux, Initial residual = 0.000295085, Final residual = 1.96211e-05, No Iterations 2
smoothSolver:  Solving for Uy, Initial residual = 0.00177662, Final residual = 9.64167e-05, No Iterations 3
GAMG:  Solving for p, Initial residual = 0.000210435, Final residual = 1.90373e-05, No Iterations 8
time step continuity errors : sum local = 3.77819e-06, global = 1.37149e-08, cumulative = 2.2743e-08
smoothSolver:  Solving for epsilon, Initial residual = 0.00124577, Final residual = 6.1611e-05, No Iterations 3
smoothSolver:  Solving for k, Initial residual = 0.000168008, Final residual = 1.44807e-05, No Iterations 2
ExecutionTime = 0.11 s  ClockTime = 0 s

Time = 20000

smoothSolver:  Solving for Ux, Initial residual = 0.000273731, Final residual = 2.56826e-05, No Iterations 2
smoothSolver:  Solving for Uy, Initial residual = 0.0020435, Final residual = 0.000129718, No Iterations 3
GAMG:  Solving for p, Initial residual = 0.000248923, Final residual = 2.43514e-05, No Iterations 7
time step continuity errors : sum local = 4.82686e-06, global = -4.97941e-09, cumulative = 1.77636e-08
smoothSolver:  Solving for epsilon, Initial residual = 0.00162163, Final residual = 0.000111973, No Iterations 3
smoothSolver:  Solving for k, Initial residual = 0.000186122, Final residual = 1.37414e-05, No Iterations 2
ExecutionTime = 0.12 s  ClockTime = 0 s

Time = 20000

smoothSolver:  Solving for Ux, Initial residual = 0.000256544, Final residual = 1.90516e-05, No Iterations 2
smoothSolver:  Solving for Uy, Initial residual = 0.00175385, Final residual = 0.000174608, No Iterations 2
GAMG:  Solving for p, Initial residual = 0.000230088, Final residual = 2.02631e-05, No Iterations 9
time step continuity errors : sum local = 4.03089e-06, global = 1.51669e-08, cumulative = 3.29305e-08
smoothSolver:  Solving for epsilon, Initial residual = 0.00151877, Final residual = 8.93687e-05, No Iterations 2
smoothSolver:  Solving for k, Initial residual = 0.000161149, Final residual = 1.28292e-05, No Iterations 2
ExecutionTime = 0.14 s  ClockTime = 0 s

Time = 20000

smoothSolver:  Solving for Ux, Initial residual = 0.000276326, Final residual = 2.55393e-05, No Iterations 2
smoothSolver:  Solving for Uy, Initial residual = 0.00195298, Final residual = 0.000107905, No Iterations 3
GAMG:  Solving for p, Initial residual = 0.000219511, Final residual = 1.9925e-05, No Iterations 8
time step continuity errors : sum local = 3.95653e-06, global = 1.02283e-08, cumulative = 4.31588e-08
smoothSolver:  Solving for epsilon, Initial residual = 0.00136001, Final residual = 7.59708e-05, No Iterations 3
smoothSolver:  Solving for k, Initial residual = 0.000179127, Final residual = 1.35567e-05, No Iterations 2
ExecutionTime = 0.15 s  ClockTime = 0 s

Time = 20000.1

smoothSolver:  Solving for Ux, Initial residual = 0.000293213, Final residual = 2.09717e-05, No Iterations 2
smoothSolver:  Solving for Uy, Initial residual = 0.00166083, Final residual = 0.000102825, No Iterations 3
GAMG:  Solving for p, Initial residual = 0.000238772, Final residual = 2.22323e-05, No Iterations 9
time step continuity errors : sum local = 4.41731e-06, global = -2.28364e-09, cumulative = 4.08752e-08
smoothSolver:  Solving for epsilon, Initial residual = 0.00143489, Final residual = 0.000126608, No Iterations 2
smoothSolver:  Solving for k, Initial residual = 0.000168214, Final residual = 1.32667e-05, No Iterations 2
ExecutionTime = 0.16 s  ClockTime = 0 s

Time = 20000.1

smoothSolver:  Solving for Ux, Initial residual = 0.000277191, Final residual = 2.6823e-05, No Iterations 2
smoothSolver:  Solving for Uy, Initial residual = 0.00202528, Final residual = 0.000112432, No Iterations 3
GAMG:  Solving for p, Initial residual = 0.000241291, Final residual = 2.22643e-05, No Iterations 8
time step continuity errors : sum local = 4.42029e-06, global = 2.99441e-09, cumulative = 4.38696e-08
smoothSolver:  Solving for epsilon, Initial residual = 0.00133647, Final residual = 6.69738e-05, No Iterations 3
smoothSolver:  Solving for k, Initial residual = 0.000169724, Final residual = 1.14901e-05, No Iterations 2
ExecutionTime = 0.18 s  ClockTime = 0 s

Time = 20000.1

smoothSolver:  Solving for Ux, Initial residual = 0.000285417, Final residual = 1.93125e-05, No Iterations 2
smoothSolver:  Solving for Uy, Initial residual = 0.00176208, Final residual = 9.62652e-05, No Iterations 3
GAMG:  Solving for p, Initial residual = 0.00020906, Final residual = 1.90297e-05, No Iterations 8
time step continuity errors : sum local = 3.77669e-06, global = 1.24385e-08, cumulative = 5.63081e-08
smoothSolver:  Solving for epsilon, Initial residual = 0.00124516, Final residual = 6.15932e-05, No Iterations 3
smoothSolver:  Solving for k, Initial residual = 0.000168179, Final residual = 1.45124e-05, No Iterations 2
ExecutionTime = 0.19 s  ClockTime = 0 s

Time = 20000.1

smoothSolver:  Solving for Ux, Initial residual = 0.000270196, Final residual = 2.58514e-05, No Iterations 2
smoothSolver:  Solving for Uy, Initial residual = 0.00203011, Final residual = 0.000129829, No Iterations 3
GAMG:  Solving for p, Initial residual = 0.000248686, Final residual = 2.43595e-05, No Iterations 7
time step continuity errors : sum local = 4.82848e-06, global = -2.85364e-09, cumulative = 5.34544e-08
smoothSolver:  Solving for epsilon, Initial residual = 0.0016222, Final residual = 0.000112004, No Iterations 3
smoothSolver:  Solving for k, Initial residual = 0.000186428, Final residual = 1.37118e-05, No Iterations 2
ExecutionTime = 0.2 s  ClockTime = 0 s

Time = 20000.1

smoothSolver:  Solving for Ux, Initial residual = 0.000256854, Final residual = 1.91621e-05, No Iterations 2
smoothSolver:  Solving for Uy, Initial residual = 0.00175898, Final residual = 0.000174265, No Iterations 2
GAMG:  Solving for p, Initial residual = 0.000230341, Final residual = 2.02543e-05, No Iterations 9
time step continuity errors : sum local = 4.02913e-06, global = 1.7482e-08, cumulative = 7.09364e-08
smoothSolver:  Solving for epsilon, Initial residual = 0.00151937, Final residual = 8.94113e-05, No Iterations 2
smoothSolver:  Solving for k, Initial residual = 0.000162259, Final residual = 1.28655e-05, No Iterations 2
ExecutionTime = 0.22 s  ClockTime = 0 s

Time = 20000.1

smoothSolver:  Solving for Ux, Initial residual = 0.000276841, Final residual = 2.55456e-05, No Iterations 2
smoothSolver:  Solving for Uy, Initial residual = 0.00196028, Final residual = 0.00010767, No Iterations 3
GAMG:  Solving for p, Initial residual = 0.00021941, Final residual = 1.99355e-05, No Iterations 8
time step continuity errors : sum local = 3.95859e-06, global = 1.22146e-08, cumulative = 8.3151e-08
smoothSolver:  Solving for epsilon, Initial residual = 0.00136028, Final residual = 7.59898e-05, No Iterations 3
smoothSolver:  Solving for k, Initial residual = 0.000180756, Final residual = 1.35855e-05, No Iterations 2
ExecutionTime = 0.23 s  ClockTime = 0 s

Time = 20000.1

smoothSolver:  Solving for Ux, Initial residual = 0.000292796, Final residual = 2.09839e-05, No Iterations 2
smoothSolver:  Solving for Uy, Initial residual = 0.00166125, Final residual = 0.000102634, No Iterations 3
GAMG:  Solving for p, Initial residual = 0.000238559, Final residual = 2.2229e-05, No Iterations 9
time step continuity errors : sum local = 4.41665e-06, global = -8.62613e-10, cumulative = 8.22884e-08
smoothSolver:  Solving for epsilon, Initial residual = 0.0014344, Final residual = 0.000126554, No Iterations 2
smoothSolver:  Solving for k, Initial residual = 0.000169032, Final residual = 1.34082e-05, No Iterations 2
ExecutionTime = 0.24 s  ClockTime = 0 s

Time = 20000.1

smoothSolver:  Solving for Ux, Initial residual = 0.000277687, Final residual = 2.68733e-05, No Iterations 2
smoothSolver:  Solving for Uy, Initial residual = 0.00201323, Final residual = 0.00011217, No Iterations 3
GAMG:  Solving for p, Initial residual = 0.000241471, Final residual = 2.22632e-05, No Iterations 8
time step continuity errors : sum local = 4.42008e-06, global = 3.5956e-09, cumulative = 8.5884e-08
smoothSolver:  Solving for epsilon, Initial residual = 0.00133582, Final residual = 6.69298e-05, No Iterations 3
smoothSolver:  Solving for k, Initial residual = 0.000170308, Final residual = 1.14839e-05, No Iterations 2
ExecutionTime = 0.25 s  ClockTime = 0 s

Time = 20000.1

smoothSolver:  Solving for Ux, Initial residual = 0.000286697, Final residual = 1.9562e-05, No Iterations 2
smoothSolver:  Solving for Uy, Initial residual = 0.00176964, Final residual = 9.7069e-05, No Iterations 3
GAMG:  Solving for p, Initial residual = 0.000210048, Final residual = 1.90222e-05, No Iterations 8
time step continuity errors : sum local = 3.77521e-06, global = 1.21221e-08, cumulative = 9.80062e-08
smoothSolver:  Solving for epsilon, Initial residual = 0.00124584, Final residual = 6.16207e-05, No Iterations 3
smoothSolver:  Solving for k, Initial residual = 0.000168919, Final residual = 1.44667e-05, No Iterations 2
ExecutionTime = 0.27 s  ClockTime = 0 s

Time = 20000.1

smoothSolver:  Solving for Ux, Initial residual = 0.000270817, Final residual = 2.57717e-05, No Iterations 2
smoothSolver:  Solving for Uy, Initial residual = 0.00204323, Final residual = 0.000129511, No Iterations 3
GAMG:  Solving for p, Initial residual = 0.00024897, Final residual = 2.43479e-05, No Iterations 7
time step continuity errors : sum local = 4.82619e-06, global = -3.33716e-09, cumulative = 9.4669e-08
smoothSolver:  Solving for epsilon, Initial residual = 0.00162268, Final residual = 0.000112056, No Iterations 3
smoothSolver:  Solving for k, Initial residual = 0.000186892, Final residual = 1.37805e-05, No Iterations 2
ExecutionTime = 0.28 s  ClockTime = 0 s

Time = 20000.2

smoothSolver:  Solving for Ux, Initial residual = 0.000255922, Final residual = 1.90416e-05, No Iterations 2
smoothSolver:  Solving for Uy, Initial residual = 0.00175491, Final residual = 0.000173912, No Iterations 2
GAMG:  Solving for p, Initial residual = 0.000230064, Final residual = 2.02506e-05, No Iterations 9
time step continuity errors : sum local = 4.02841e-06, global = 1.722e-08, cumulative = 1.11889e-07
smoothSolver:  Solving for epsilon, Initial residual = 0.00151903, Final residual = 8.93858e-05, No Iterations 2
smoothSolver:  Solving for k, Initial residual = 0.000160348, Final residual = 1.28212e-05, No Iterations 2
ExecutionTime = 0.29 s  ClockTime = 0 s

Time = 20000.2

smoothSolver:  Solving for Ux, Initial residual = 0.000276017, Final residual = 2.54754e-05, No Iterations 2
smoothSolver:  Solving for Uy, Initial residual = 0.0019537, Final residual = 0.000108224, No Iterations 3
GAMG:  Solving for p, Initial residual = 0.000218971, Final residual = 1.99334e-05, No Iterations 8
time step continuity errors : sum local = 3.9582e-06, global = 1.21047e-08, cumulative = 1.23994e-07
smoothSolver:  Solving for epsilon, Initial residual = 0.00135948, Final residual = 7.59348e-05, No Iterations 3
smoothSolver:  Solving for k, Initial residual = 0.000178235, Final residual = 1.35268e-05, No Iterations 2
ExecutionTime = 0.31 s  ClockTime = 0 s

Time = 20000.2

smoothSolver:  Solving for Ux, Initial residual = 0.000293205, Final residual = 2.09993e-05, No Iterations 2
smoothSolver:  Solving for Uy, Initial residual = 0.00166198, Final residual = 0.000102527, No Iterations 3
GAMG:  Solving for p, Initial residual = 0.000238455, Final residual = 2.2233e-05, No Iterations 9
time step continuity errors : sum local = 4.41745e-06, global = -1.16148e-09, cumulative = 1.22832e-07
smoothSolver:  Solving for epsilon, Initial residual = 0.00143432, Final residual = 0.00012653, No Iterations 2
smoothSolver:  Solving for k, Initial residual = 0.000169353, Final residual = 1.33471e-05, No Iterations 2
ExecutionTime = 0.32 s  ClockTime = 0 s

Time = 20000.2

smoothSolver:  Solving for Ux, Initial residual = 0.000277636, Final residual = 2.68195e-05, No Iterations 2
smoothSolver:  Solving for Uy, Initial residual = 0.00202553, Final residual = 0.000112336, No Iterations 3
GAMG:  Solving for p, Initial residual = 0.000241756, Final residual = 2.22665e-05, No Iterations 8
time step continuity errors : sum local = 4.42074e-06, global = 3.54969e-09, cumulative = 1.26382e-07
smoothSolver:  Solving for epsilon, Initial residual = 0.00133725, Final residual = 6.69998e-05, No Iterations 3
smoothSolver:  Solving for k, Initial residual = 0.000171461, Final residual = 1.1501e-05, No Iterations 2
ExecutionTime = 0.34 s  ClockTime = 0 s

Time = 20000.2

smoothSolver:  Solving for Ux, Initial residual = 0.000285936, Final residual = 1.93941e-05, No Iterations 2
smoothSolver:  Solving for Uy, Initial residual = 0.00176671, Final residual = 9.62322e-05, No Iterations 3
GAMG:  Solving for p, Initial residual = 0.000209753, Final residual = 1.90339e-05, No Iterations 8
time step continuity errors : sum local = 3.77753e-06, global = 1.21755e-08, cumulative = 1.38557e-07
smoothSolver:  Solving for epsilon, Initial residual = 0.00124541, Final residual = 6.15936e-05, No Iterations 3
smoothSolver:  Solving for k, Initial residual = 0.000168066, Final residual = 1.45437e-05, No Iterations 2
ExecutionTime = 0.36 s  ClockTime = 0 s

Time = 20000.2

smoothSolver:  Solving for Ux, Initial residual = 0.000270935, Final residual = 2.58016e-05, No Iterations 2
smoothSolver:  Solving for Uy, Initial residual = 0.00203405, Final residual = 0.000129921, No Iterations 3
GAMG:  Solving for p, Initial residual = 0.000248521, Final residual = 2.43482e-05, No Iterations 7
time step continuity errors : sum local = 4.82624e-06, global = -3.47156e-09, cumulative = 1.35086e-07
smoothSolver:  Solving for epsilon, Initial residual = 0.00162186, Final residual = 0.00011196, No Iterations 3
smoothSolver:  Solving for k, Initial residual = 0.000185925, Final residual = 1.37017e-05, No Iterations 2
ExecutionTime = 0.37 s  ClockTime = 0 s

Time = 20000.2

smoothSolver:  Solving for Ux, Initial residual = 0.000256686, Final residual = 1.91362e-05, No Iterations 2
smoothSolver:  Solving for Uy, Initial residual = 0.0017592, Final residual = 0.000174982, No Iterations 2
GAMG:  Solving for p, Initial residual = 0.000230191, Final residual = 2.0255e-05, No Iterations 9
time step continuity errors : sum local = 4.02927e-06, global = 1.70145e-08, cumulative = 1.521e-07
smoothSolver:  Solving for epsilon, Initial residual = 0.00151921, Final residual = 8.93989e-05, No Iterations 2
smoothSolver:  Solving for k, Initial residual = 0.000161492, Final residual = 1.28143e-05, No Iterations 2
ExecutionTime = 0.38 s  ClockTime = 0 s

Time = 20000.2

smoothSolver:  Solving for Ux, Initial residual = 0.000276212, Final residual = 2.55281e-05, No Iterations 2
smoothSolver:  Solving for Uy, Initial residual = 0.00195899, Final residual = 0.000107701, No Iterations 3
GAMG:  Solving for p, Initial residual = 0.000219114, Final residual = 1.99243e-05, No Iterations 8
time step continuity errors : sum local = 3.95638e-06, global = 1.22729e-08, cumulative = 1.64373e-07
smoothSolver:  Solving for epsilon, Initial residual = 0.00135947, Final residual = 7.59521e-05, No Iterations 3
smoothSolver:  Solving for k, Initial residual = 0.000179396, Final residual = 1.36025e-05, No Iterations 2
ExecutionTime = 0.4 s  ClockTime = 0 s

Time = 20000.2

smoothSolver:  Solving for Ux, Initial residual = 0.00029218, Final residual = 2.09939e-05, No Iterations 2
smoothSolver:  Solving for Uy, Initial residual = 0.00165811, Final residual = 0.000102407, No Iterations 3
GAMG:  Solving for p, Initial residual = 0.000238012, Final residual = 2.22213e-05, No Iterations 9
time step continuity errors : sum local = 4.41512e-06, global = -5.74982e-10, cumulative = 1.63798e-07
smoothSolver:  Solving for epsilon, Initial residual = 0.00143417, Final residual = 0.000126538, No Iterations 2
smoothSolver:  Solving for k, Initial residual = 0.00016808, Final residual = 1.33544e-05, No Iterations 2
ExecutionTime = 0.41 s  ClockTime = 0 s

Time = 20000.2

smoothSolver:  Solving for Ux, Initial residual = 0.000277353, Final residual = 2.68467e-05, No Iterations 2
smoothSolver:  Solving for Uy, Initial residual = 0.00201463, Final residual = 0.00011232, No Iterations 3
GAMG:  Solving for p, Initial residual = 0.000241537, Final residual = 2.2253e-05, No Iterations 8
time step continuity errors : sum local = 4.41804e-06, global = 3.89387e-09, cumulative = 1.67692e-07
smoothSolver:  Solving for epsilon, Initial residual = 0.00133642, Final residual = 6.69542e-05, No Iterations 3
smoothSolver:  Solving for k, Initial residual = 0.0001696, Final residual = 1.14549e-05, No Iterations 2
ExecutionTime = 0.42 s  ClockTime = 0 s

Time = 20000.3

smoothSolver:  Solving for Ux, Initial residual = 0.000286649, Final residual = 1.95763e-05, No Iterations 2
smoothSolver:  Solving for Uy, Initial residual = 0.00176793, Final residual = 9.65114e-05, No Iterations 3
GAMG:  Solving for p, Initial residual = 0.000209575, Final residual = 1.90344e-05, No Iterations 8
time step continuity errors : sum local = 3.77761e-06, global = 1.23734e-08, cumulative = 1.80066e-07
smoothSolver:  Solving for epsilon, Initial residual = 0.00124571, Final residual = 6.16168e-05, No Iterations 3
smoothSolver:  Solving for k, Initial residual = 0.000168786, Final residual = 1.45098e-05, No Iterations 2
ExecutionTime = 0.44 s  ClockTime = 0 s

Time = 20000.3

smoothSolver:  Solving for Ux, Initial residual = 0.000271519, Final residual = 2.57006e-05, No Iterations 2
smoothSolver:  Solving for Uy, Initial residual = 0.00204115, Final residual = 0.000129684, No Iterations 3
GAMG:  Solving for p, Initial residual = 0.00024905, Final residual = 2.43539e-05, No Iterations 7
time step continuity errors : sum local = 4.82735e-06, global = -3.29785e-09, cumulative = 1.76768e-07
smoothSolver:  Solving for epsilon, Initial residual = 0.00162185, Final residual = 0.000111991, No Iterations 3
smoothSolver:  Solving for k, Initial residual = 0.000187067, Final residual = 1.37709e-05, No Iterations 2
ExecutionTime = 0.45 s  ClockTime = 0 s

Time = 20000.3

smoothSolver:  Solving for Ux, Initial residual = 0.000256333, Final residual = 1.90593e-05, No Iterations 2
smoothSolver:  Solving for Uy, Initial residual = 0.0017562, Final residual = 0.000174453, No Iterations 2
GAMG:  Solving for p, Initial residual = 0.000230137, Final residual = 2.02536e-05, No Iterations 9
time step continuity errors : sum local = 4.02899e-06, global = 1.71129e-08, cumulative = 1.93881e-07
smoothSolver:  Solving for epsilon, Initial residual = 0.00151889, Final residual = 8.93787e-05, No Iterations 2
smoothSolver:  Solving for k, Initial residual = 0.000160538, Final residual = 1.28327e-05, No Iterations 2
ExecutionTime = 0.46 s  ClockTime = 0 s

Time = 20000.3

smoothSolver:  Solving for Ux, Initial residual = 0.000276422, Final residual = 2.55333e-05, No Iterations 2
smoothSolver:  Solving for Uy, Initial residual = 0.00195144, Final residual = 0.000107956, No Iterations 3
GAMG:  Solving for p, Initial residual = 0.000219023, Final residual = 1.99295e-05, No Iterations 8
time step continuity errors : sum local = 3.95741e-06, global = 1.18501e-08, cumulative = 2.05731e-07
smoothSolver:  Solving for epsilon, Initial residual = 0.00136, Final residual = 7.59741e-05, No Iterations 3
smoothSolver:  Solving for k, Initial residual = 0.000178246, Final residual = 1.35306e-05, No Iterations 2
ExecutionTime = 0.48 s  ClockTime = 0 s

Time = 20000.3

smoothSolver:  Solving for Ux, Initial residual = 0.000293075, Final residual = 2.10003e-05, No Iterations 2
smoothSolver:  Solving for Uy, Initial residual = 0.00165809, Final residual = 0.000102784, No Iterations 3
GAMG:  Solving for p, Initial residual = 0.000238549, Final residual = 2.22341e-05, No Iterations 9
time step continuity errors : sum local = 4.41766e-06, global = -1.30035e-09, cumulative = 2.0443e-07
smoothSolver:  Solving for epsilon, Initial residual = 0.00143451, Final residual = 0.000126566, No Iterations 2
smoothSolver:  Solving for k, Initial residual = 0.000168779, Final residual = 1.32909e-05, No Iterations 2
ExecutionTime = 0.49 s  ClockTime = 0 s

Time = 20000.3

smoothSolver:  Solving for Ux, Initial residual = 0.000277126, Final residual = 2.68059e-05, No Iterations 2
smoothSolver:  Solving for Uy, Initial residual = 0.00202623, Final residual = 0.000112446, No Iterations 3
GAMG:  Solving for p, Initial residual = 0.000241657, Final residual = 2.22596e-05, No Iterations 8
time step continuity errors : sum local = 4.41935e-06, global = 3.54217e-09, cumulative = 2.07973e-07
smoothSolver:  Solving for epsilon, Initial residual = 0.00133653, Final residual = 6.69746e-05, No Iterations 3
smoothSolver:  Solving for k, Initial residual = 0.000170589, Final residual = 1.15077e-05, No Iterations 2
ExecutionTime = 0.5 s  ClockTime = 0 s

Time = 20000.3

smoothSolver:  Solving for Ux, Initial residual = 0.000285597, Final residual = 1.93101e-05, No Iterations 2
smoothSolver:  Solving for Uy, Initial residual = 0.0017655, Final residual = 9.6322e-05, No Iterations 3
GAMG:  Solving for p, Initial residual = 0.000209232, Final residual = 1.90307e-05, No Iterations 8
time step continuity errors : sum local = 3.77691e-06, global = 1.24582e-08, cumulative = 2.20431e-07
smoothSolver:  Solving for epsilon, Initial residual = 0.00124554, Final residual = 6.16083e-05, No Iterations 3
smoothSolver:  Solving for k, Initial residual = 0.00016744, Final residual = 1.44999e-05, No Iterations 2
ExecutionTime = 0.52 s  ClockTime = 0 s

Time = 20000.3

smoothSolver:  Solving for Ux, Initial residual = 0.000270406, Final residual = 2.58544e-05, No Iterations 2
smoothSolver:  Solving for Uy, Initial residual = 0.0020306, Final residual = 0.00012982, No Iterations 3
GAMG:  Solving for p, Initial residual = 0.000248328, Final residual = 2.43627e-05, No Iterations 7
time step continuity errors : sum local = 4.82911e-06, global = -3.20251e-09, cumulative = 2.17228e-07
smoothSolver:  Solving for epsilon, Initial residual = 0.00162248, Final residual = 0.000112019, No Iterations 3
smoothSolver:  Solving for k, Initial residual = 0.000185371, Final residual = 1.37061e-05, No Iterations 2
ExecutionTime = 0.53 s  ClockTime = 0 s

Time = 20000.3

smoothSolver:  Solving for Ux, Initial residual = 0.00025664, Final residual = 1.91807e-05, No Iterations 2
smoothSolver:  Solving for Uy, Initial residual = 0.00175691, Final residual = 0.00017413, No Iterations 2
GAMG:  Solving for p, Initial residual = 0.000230004, Final residual = 2.02535e-05, No Iterations 9
time step continuity errors : sum local = 4.02896e-06, global = 1.7263e-08, cumulative = 2.34491e-07
smoothSolver:  Solving for epsilon, Initial residual = 0.00151911, Final residual = 8.93952e-05, No Iterations 2
smoothSolver:  Solving for k, Initial residual = 0.000161373, Final residual = 1.28558e-05, No Iterations 2
ExecutionTime = 0.54 s  ClockTime = 0 s

Time = 20000.3

smoothSolver:  Solving for Ux, Initial residual = 0.000276494, Final residual = 2.55447e-05, No Iterations 2
smoothSolver:  Solving for Uy, Initial residual = 0.00195852, Final residual = 0.000107686, No Iterations 3
GAMG:  Solving for p, Initial residual = 0.00021908, Final residual = 1.99327e-05, No Iterations 8
time step continuity errors : sum local = 3.95803e-06, global = 1.22775e-08, cumulative = 2.46769e-07
smoothSolver:  Solving for epsilon, Initial residual = 0.00136025, Final residual = 7.59875e-05, No Iterations 3
smoothSolver:  Solving for k, Initial residual = 0.000179683, Final residual = 1.35531e-05, No Iterations 2
ExecutionTime = 0.56 s  ClockTime = 0 s

Time = 20000.4

smoothSolver:  Solving for Ux, Initial residual = 0.000292441, Final residual = 2.0991e-05, No Iterations 2
smoothSolver:  Solving for Uy, Initial residual = 0.00165846, Final residual = 0.000102693, No Iterations 3
GAMG:  Solving for p, Initial residual = 0.000238153, Final residual = 2.22315e-05, No Iterations 9
time step continuity errors : sum local = 4.41714e-06, global = -6.23119e-10, cumulative = 2.46146e-07
smoothSolver:  Solving for epsilon, Initial residual = 0.00143483, Final residual = 0.000126587, No Iterations 2
smoothSolver:  Solving for k, Initial residual = 0.00016832, Final residual = 1.33941e-05, No Iterations 2
ExecutionTime = 0.57 s  ClockTime = 0 s

Time = 20000.4

smoothSolver:  Solving for Ux, Initial residual = 0.000277368, Final residual = 2.68676e-05, No Iterations 2
smoothSolver:  Solving for Uy, Initial residual = 0.00201092, Final residual = 0.000112114, No Iterations 3
GAMG:  Solving for p, Initial residual = 0.000241326, Final residual = 2.22644e-05, No Iterations 8
time step continuity errors : sum local = 4.4203e-06, global = 3.75599e-09, cumulative = 2.49902e-07
smoothSolver:  Solving for epsilon, Initial residual = 0.00133593, Final residual = 6.69356e-05, No Iterations 3
smoothSolver:  Solving for k, Initial residual = 0.000169734, Final residual = 1.14803e-05, No Iterations 2
ExecutionTime = 0.59 s  ClockTime = 0 s

Time = 20000.4

smoothSolver:  Solving for Ux, Initial residual = 0.000286572, Final residual = 1.95675e-05, No Iterations 2
smoothSolver:  Solving for Uy, Initial residual = 0.0017675, Final residual = 9.70157e-05, No Iterations 3
GAMG:  Solving for p, Initial residual = 0.000209809, Final residual = 1.90183e-05, No Iterations 8
time step continuity errors : sum local = 3.77443e-06, global = 1.23302e-08, cumulative = 2.62232e-07
smoothSolver:  Solving for epsilon, Initial residual = 0.00124551, Final residual = 6.16069e-05, No Iterations 3
smoothSolver:  Solving for k, Initial residual = 0.000168384, Final residual = 1.44702e-05, No Iterations 2
ExecutionTime = 0.61 s  ClockTime = 0 s

Time = 20000.4

smoothSolver:  Solving for Ux, Initial residual = 0.000270457, Final residual = 2.57669e-05, No Iterations 2
smoothSolver:  Solving for Uy, Initial residual = 0.00204076, Final residual = 0.000129493, No Iterations 3
GAMG:  Solving for p, Initial residual = 0.000248538, Final residual = 2.43465e-05, No Iterations 7
time step continuity errors : sum local = 4.82589e-06, global = -3.15216e-09, cumulative = 2.5908e-07
smoothSolver:  Solving for epsilon, Initial residual = 0.00162259, Final residual = 0.00011205, No Iterations 3
smoothSolver:  Solving for k, Initial residual = 0.000186326, Final residual = 1.37477e-05, No Iterations 2
ExecutionTime = 0.63 s  ClockTime = 0 s

Time = 20000.4

smoothSolver:  Solving for Ux, Initial residual = 0.000255829, Final residual = 1.90755e-05, No Iterations 2
smoothSolver:  Solving for Uy, Initial residual = 0.00175298, Final residual = 0.000173858, No Iterations 2
GAMG:  Solving for p, Initial residual = 0.000229974, Final residual = 2.02517e-05, No Iterations 9
time step continuity errors : sum local = 4.02862e-06, global = 1.753e-08, cumulative = 2.7661e-07
smoothSolver:  Solving for epsilon, Initial residual = 0.00151906, Final residual = 8.93858e-05, No Iterations 2
smoothSolver:  Solving for k, Initial residual = 0.000161287, Final residual = 1.28339e-05, No Iterations 2
ExecutionTime = 0.65 s  ClockTime = 0 s

Time = 20000.4

smoothSolver:  Solving for Ux, Initial residual = 0.000276157, Final residual = 2.54787e-05, No Iterations 2
smoothSolver:  Solving for Uy, Initial residual = 0.00195529, Final residual = 0.000108179, No Iterations 3
GAMG:  Solving for p, Initial residual = 0.000219412, Final residual = 1.9937e-05, No Iterations 8
time step continuity errors : sum local = 3.95889e-06, global = 1.2272e-08, cumulative = 2.88882e-07
smoothSolver:  Solving for epsilon, Initial residual = 0.00135922, Final residual = 7.5926e-05, No Iterations 3
smoothSolver:  Solving for k, Initial residual = 0.000179698, Final residual = 1.35586e-05, No Iterations 2
ExecutionTime = 0.66 s  ClockTime = 0 s

Time = 20000.4

smoothSolver:  Solving for Ux, Initial residual = 0.000293372, Final residual = 2.10097e-05, No Iterations 2
smoothSolver:  Solving for Uy, Initial residual = 0.00166695, Final residual = 0.000102559, No Iterations 3
GAMG:  Solving for p, Initial residual = 0.000238659, Final residual = 2.22282e-05, No Iterations 9
time step continuity errors : sum local = 4.41648e-06, global = -1.10889e-09, cumulative = 2.87773e-07
smoothSolver:  Solving for epsilon, Initial residual = 0.00143431, Final residual = 0.000126531, No Iterations 2
smoothSolver:  Solving for k, Initial residual = 0.000168969, Final residual = 1.33504e-05, No Iterations 2
ExecutionTime = 0.68 s  ClockTime = 0 s

Time = 20000.4

smoothSolver:  Solving for Ux, Initial residual = 0.000277975, Final residual = 2.68538e-05, No Iterations 2
smoothSolver:  Solving for Uy, Initial residual = 0.0020254, Final residual = 0.000112333, No Iterations 3
GAMG:  Solving for p, Initial residual = 0.00024147, Final residual = 2.22653e-05, No Iterations 8
time step continuity errors : sum local = 4.42047e-06, global = 3.36134e-09, cumulative = 2.91134e-07
smoothSolver:  Solving for epsilon, Initial residual = 0.00133722, Final residual = 6.69989e-05, No Iterations 3
smoothSolver:  Solving for k, Initial residual = 0.000170594, Final residual = 1.14726e-05, No Iterations 2
ExecutionTime = 0.69 s  ClockTime = 0 s

Time = 20000.4

smoothSolver:  Solving for Ux, Initial residual = 0.000285724, Final residual = 1.94194e-05, No Iterations 2
smoothSolver:  Solving for Uy, Initial residual = 0.00176476, Final residual = 9.63428e-05, No Iterations 3
GAMG:  Solving for p, Initial residual = 0.00020972, Final residual = 1.90369e-05, No Iterations 8
time step continuity errors : sum local = 3.77812e-06, global = 1.18691e-08, cumulative = 3.03003e-07
smoothSolver:  Solving for epsilon, Initial residual = 0.00124549, Final residual = 6.16059e-05, No Iterations 3
smoothSolver:  Solving for k, Initial residual = 0.000169029, Final residual = 1.45464e-05, No Iterations 2
ExecutionTime = 0.7 s  ClockTime = 0 s

Time = 20000.4

smoothSolver:  Solving for Ux, Initial residual = 0.00027099, Final residual = 2.57634e-05, No Iterations 2
smoothSolver:  Solving for Uy, Initial residual = 0.00203534, Final residual = 0.000129933, No Iterations 3
GAMG:  Solving for p, Initial residual = 0.000249129, Final residual = 2.43463e-05, No Iterations 7
time step continuity errors : sum local = 4.82586e-06, global = -3.77187e-09, cumulative = 2.99231e-07
smoothSolver:  Solving for epsilon, Initial residual = 0.00162105, Final residual = 0.000111911, No Iterations 3
smoothSolver:  Solving for k, Initial residual = 0.000187233, Final residual = 1.37666e-05, No Iterations 2
ExecutionTime = 0.72 s  ClockTime = 0 s

Time = 20000.5

smoothSolver:  Solving for Ux, Initial residual = 0.000257009, Final residual = 1.90529e-05, No Iterations 2
smoothSolver:  Solving for Uy, Initial residual = 0.00176244, Final residual = 0.000175228, No Iterations 2
GAMG:  Solving for p, Initial residual = 0.000230557, Final residual = 2.02505e-05, No Iterations 9
time step continuity errors : sum local = 4.02837e-06, global = 1.655e-08, cumulative = 3.15781e-07
smoothSolver:  Solving for epsilon, Initial residual = 0.00151885, Final residual = 8.938e-05, No Iterations 2
smoothSolver:  Solving for k, Initial residual = 0.000161064, Final residual = 1.27812e-05, No Iterations 2
ExecutionTime = 0.73 s  ClockTime = 0 s

Time = 20000.5

smoothSolver:  Solving for Ux, Initial residual = 0.000276365, Final residual = 2.55754e-05, No Iterations 2
smoothSolver:  Solving for Uy, Initial residual = 0.00195908, Final residual = 0.000107758, No Iterations 3
GAMG:  Solving for p, Initial residual = 0.000218811, Final residual = 1.99286e-05, No Iterations 8
time step continuity errors : sum local = 3.95721e-06, global = 1.18063e-08, cumulative = 3.27588e-07
smoothSolver:  Solving for epsilon, Initial residual = 0.00136058, Final residual = 7.60184e-05, No Iterations 3
smoothSolver:  Solving for k, Initial residual = 0.000178626, Final residual = 1.35752e-05, No Iterations 2
ExecutionTime = 0.74 s  ClockTime = 0 s

Time = 20000.5

smoothSolver:  Solving for Ux, Initial residual = 0.000292161, Final residual = 2.09793e-05, No Iterations 2
smoothSolver:  Solving for Uy, Initial residual = 0.00165432, Final residual = 0.000102175, No Iterations 3
GAMG:  Solving for p, Initial residual = 0.000237922, Final residual = 2.22207e-05, No Iterations 9
time step continuity errors : sum local = 4.415e-06, global = -1.03574e-09, cumulative = 3.26552e-07
smoothSolver:  Solving for epsilon, Initial residual = 0.0014349, Final residual = 0.000126601, No Iterations 2
smoothSolver:  Solving for k, Initial residual = 0.000168733, Final residual = 1.33553e-05, No Iterations 2
ExecutionTime = 0.75 s  ClockTime = 0 s

Time = 20000.5

smoothSolver:  Solving for Ux, Initial residual = 0.000277274, Final residual = 2.68124e-05, No Iterations 2
smoothSolver:  Solving for Uy, Initial residual = 0.00201732, Final residual = 0.000112366, No Iterations 3
GAMG:  Solving for p, Initial residual = 0.000242006, Final residual = 2.22534e-05, No Iterations 8
time step continuity errors : sum local = 4.4181e-06, global = 3.75398e-09, cumulative = 3.30306e-07
smoothSolver:  Solving for epsilon, Initial residual = 0.0013362, Final residual = 6.69422e-05, No Iterations 3
smoothSolver:  Solving for k, Initial residual = 0.000170777, Final residual = 1.14893e-05, No Iterations 2
ExecutionTime = 0.76 s  ClockTime = 0 s

Time = 20000.5

smoothSolver:  Solving for Ux, Initial residual = 0.000287033, Final residual = 1.95896e-05, No Iterations 2
smoothSolver:  Solving for Uy, Initial residual = 0.00177182, Final residual = 9.65113e-05, No Iterations 3
GAMG:  Solving for p, Initial residual = 0.000209844, Final residual = 1.9036e-05, No Iterations 8
time step continuity errors : sum local = 3.77793e-06, global = 1.22316e-08, cumulative = 3.42537e-07
smoothSolver:  Solving for epsilon, Initial residual = 0.0012455, Final residual = 6.1596e-05, No Iterations 3
smoothSolver:  Solving for k, Initial residual = 0.000168223, Final residual = 1.44829e-05, No Iterations 2
ExecutionTime = 0.78 s  ClockTime = 1 s

Time = 20000.5

smoothSolver:  Solving for Ux, Initial residual = 0.000271593, Final residual = 2.57082e-05, No Iterations 2
smoothSolver:  Solving for Uy, Initial residual = 0.00204099, Final residual = 0.000129683, No Iterations 3
GAMG:  Solving for p, Initial residual = 0.000248699, Final residual = 2.43565e-05, No Iterations 7
time step continuity errors : sum local = 4.82786e-06, global = -3.50859e-09, cumulative = 3.39029e-07
smoothSolver:  Solving for epsilon, Initial residual = 0.00162275, Final residual = 0.000112048, No Iterations 3
smoothSolver:  Solving for k, Initial residual = 0.000186308, Final residual = 1.37273e-05, No Iterations 2
ExecutionTime = 0.79 s  ClockTime = 1 s

Time = 20000.5

smoothSolver:  Solving for Ux, Initial residual = 0.000256142, Final residual = 1.90953e-05, No Iterations 2
smoothSolver:  Solving for Uy, Initial residual = 0.0017547, Final residual = 0.000174409, No Iterations 2
GAMG:  Solving for p, Initial residual = 0.000229936, Final residual = 2.02535e-05, No Iterations 9
time step continuity errors : sum local = 4.02896e-06, global = 1.69003e-08, cumulative = 3.55929e-07
smoothSolver:  Solving for epsilon, Initial residual = 0.00151895, Final residual = 8.93804e-05, No Iterations 2
smoothSolver:  Solving for k, Initial residual = 0.000161335, Final residual = 1.28551e-05, No Iterations 2
ExecutionTime = 0.81 s  ClockTime = 1 s

Time = 20000.5

smoothSolver:  Solving for Ux, Initial residual = 0.000276446, Final residual = 2.55028e-05, No Iterations 2
smoothSolver:  Solving for Uy, Initial residual = 0.00195289, Final residual = 0.000107953, No Iterations 3
GAMG:  Solving for p, Initial residual = 0.000219531, Final residual = 1.99262e-05, No Iterations 8
time step continuity errors : sum local = 3.95675e-06, global = 1.18319e-08, cumulative = 3.67761e-07
smoothSolver:  Solving for epsilon, Initial residual = 0.00135986, Final residual = 7.59534e-05, No Iterations 3
smoothSolver:  Solving for k, Initial residual = 0.000179509, Final residual = 1.35581e-05, No Iterations 2
ExecutionTime = 0.83 s  ClockTime = 1 s

Time = 20000.5

smoothSolver:  Solving for Ux, Initial residual = 0.000293273, Final residual = 2.09555e-05, No Iterations 2
smoothSolver:  Solving for Uy, Initial residual = 0.00166319, Final residual = 0.000103136, No Iterations 3
GAMG:  Solving for p, Initial residual = 0.000238754, Final residual = 2.2234e-05, No Iterations 9
time step continuity errors : sum local = 4.41763e-06, global = -1.38494e-09, cumulative = 3.66376e-07
smoothSolver:  Solving for epsilon, Initial residual = 0.0014349, Final residual = 0.000126605, No Iterations 2
smoothSolver:  Solving for k, Initial residual = 0.000168432, Final residual = 1.32797e-05, No Iterations 2
ExecutionTime = 0.84 s  ClockTime = 1 s

Time = 20000.5

smoothSolver:  Solving for Ux, Initial residual = 0.000277485, Final residual = 2.68953e-05, No Iterations 2
smoothSolver:  Solving for Uy, Initial residual = 0.00202587, Final residual = 0.000112344, No Iterations 3
GAMG:  Solving for p, Initial residual = 0.000241342, Final residual = 2.22669e-05, No Iterations 8
time step continuity errors : sum local = 4.42078e-06, global = 3.41497e-09, cumulative = 3.69791e-07
smoothSolver:  Solving for epsilon, Initial residual = 0.00133649, Final residual = 6.6974e-05, No Iterations 3
smoothSolver:  Solving for k, Initial residual = 0.000169748, Final residual = 1.15033e-05, No Iterations 2
ExecutionTime = 0.86 s  ClockTime = 1 s

Time = 20000.6

smoothSolver:  Solving for Ux, Initial residual = 0.000285633, Final residual = 1.93481e-05, No Iterations 2
smoothSolver:  Solving for Uy, Initial residual = 0.00176325, Final residual = 9.6262e-05, No Iterations 3
GAMG:  Solving for p, Initial residual = 0.000209245, Final residual = 1.9024e-05, No Iterations 8
time step continuity errors : sum local = 3.77555e-06, global = 1.23555e-08, cumulative = 3.82146e-07
smoothSolver:  Solving for epsilon, Initial residual = 0.00124558, Final residual = 6.16132e-05, No Iterations 3
smoothSolver:  Solving for k, Initial residual = 0.000168194, Final residual = 1.44987e-05, No Iterations 2
ExecutionTime = 0.87 s  ClockTime = 1 s

Time = 20000.6

smoothSolver:  Solving for Ux, Initial residual = 0.000270398, Final residual = 2.58316e-05, No Iterations 2
smoothSolver:  Solving for Uy, Initial residual = 0.00203175, Final residual = 0.000129824, No Iterations 3
GAMG:  Solving for p, Initial residual = 0.000248741, Final residual = 2.43591e-05, No Iterations 7
time step continuity errors : sum local = 4.82839e-06, global = -2.95374e-09, cumulative = 3.79193e-07
smoothSolver:  Solving for epsilon, Initial residual = 0.00162224, Final residual = 0.000112001, No Iterations 3
smoothSolver:  Solving for k, Initial residual = 0.000186593, Final residual = 1.37554e-05, No Iterations 2
ExecutionTime = 0.89 s  ClockTime = 1 s

Time = 20000.6

smoothSolver:  Solving for Ux, Initial residual = 0.000256802, Final residual = 1.91384e-05, No Iterations 2
smoothSolver:  Solving for Uy, Initial residual = 0.00175904, Final residual = 0.000174323, No Iterations 2
GAMG:  Solving for p, Initial residual = 0.00023033, Final residual = 2.02556e-05, No Iterations 9
time step continuity errors : sum local = 4.02937e-06, global = 1.75428e-08, cumulative = 3.96735e-07
smoothSolver:  Solving for epsilon, Initial residual = 0.00151928, Final residual = 8.9401e-05, No Iterations 2
smoothSolver:  Solving for k, Initial residual = 0.000160859, Final residual = 1.28328e-05, No Iterations 2
ExecutionTime = 0.9 s  ClockTime = 1 s

Time = 20000.6

smoothSolver:  Solving for Ux, Initial residual = 0.000276747, Final residual = 2.55782e-05, No Iterations 2
smoothSolver:  Solving for Uy, Initial residual = 0.00195779, Final residual = 0.000107588, No Iterations 3
GAMG:  Solving for p, Initial residual = 0.000218745, Final residual = 1.99329e-05, No Iterations 8
time step continuity errors : sum local = 3.95808e-06, global = 1.2408e-08, cumulative = 4.09144e-07
smoothSolver:  Solving for epsilon, Initial residual = 0.00136036, Final residual = 7.59955e-05, No Iterations 3
smoothSolver:  Solving for k, Initial residual = 0.000178994, Final residual = 1.35372e-05, No Iterations 2
ExecutionTime = 0.92 s  ClockTime = 1 s

Time = 20000.6

smoothSolver:  Solving for Ux, Initial residual = 0.000292216, Final residual = 2.10131e-05, No Iterations 2
smoothSolver:  Solving for Uy, Initial residual = 0.00165536, Final residual = 0.000102447, No Iterations 3
GAMG:  Solving for p, Initial residual = 0.000237932, Final residual = 2.22306e-05, No Iterations 9
time step continuity errors : sum local = 4.41697e-06, global = -6.3525e-10, cumulative = 4.08508e-07
smoothSolver:  Solving for epsilon, Initial residual = 0.00143471, Final residual = 0.000126574, No Iterations 2
smoothSolver:  Solving for k, Initial residual = 0.000169161, Final residual = 1.34019e-05, No Iterations 2
ExecutionTime = 0.94 s  ClockTime = 1 s

Time = 20000.6

smoothSolver:  Solving for Ux, Initial residual = 0.000277184, Final residual = 2.68441e-05, No Iterations 2
smoothSolver:  Solving for Uy, Initial residual = 0.00201182, Final residual = 0.000112165, No Iterations 3
GAMG:  Solving for p, Initial residual = 0.000241796, Final residual = 2.22595e-05, No Iterations 8
time step continuity errors : sum local = 4.41934e-06, global = 3.73706e-09, cumulative = 4.12245e-07
smoothSolver:  Solving for epsilon, Initial residual = 0.00133601, Final residual = 6.69352e-05, No Iterations 3
smoothSolver:  Solving for k, Initial residual = 0.000170843, Final residual = 1.1481e-05, No Iterations 2
ExecutionTime = 0.96 s  ClockTime = 1 s

Time = 20000.6

smoothSolver:  Solving for Ux, Initial residual = 0.000286665, Final residual = 1.95476e-05, No Iterations 2
smoothSolver:  Solving for Uy, Initial residual = 0.00177074, Final residual = 9.7008e-05, No Iterations 3
GAMG:  Solving for p, Initial residual = 0.000209937, Final residual = 1.90264e-05, No Iterations 8
time step continuity errors : sum local = 3.77604e-06, global = 1.21178e-08, cumulative = 4.24363e-07
smoothSolver:  Solving for epsilon, Initial residual = 0.00124551, Final residual = 6.16034e-05, No Iterations 3
smoothSolver:  Solving for k, Initial residual = 0.000167754, Final residual = 1.44595e-05, No Iterations 2
ExecutionTime = 0.97 s  ClockTime = 1 s

Time = 20000.6

smoothSolver:  Solving for Ux, Initial residual = 0.000270751, Final residual = 2.57313e-05, No Iterations 2
smoothSolver:  Solving for Uy, Initial residual = 0.00204143, Final residual = 0.000129545, No Iterations 3
GAMG:  Solving for p, Initial residual = 0.0002484, Final residual = 2.43463e-05, No Iterations 7
time step continuity errors : sum local = 4.82584e-06, global = -3.71459e-09, cumulative = 4.20649e-07
smoothSolver:  Solving for epsilon, Initial residual = 0.00162265, Final residual = 0.000112059, No Iterations 3
smoothSolver:  Solving for k, Initial residual = 0.000185336, Final residual = 1.37129e-05, No Iterations 2
ExecutionTime = 0.99 s  ClockTime = 1 s

Time = 20000.6

smoothSolver:  Solving for Ux, Initial residual = 0.00025562, Final residual = 1.90462e-05, No Iterations 2
smoothSolver:  Solving for Uy, Initial residual = 0.00175179, Final residual = 0.000174219, No Iterations 2
GAMG:  Solving for p, Initial residual = 0.000229569, Final residual = 2.02513e-05, No Iterations 9
time step continuity errors : sum local = 4.02853e-06, global = 1.6981e-08, cumulative = 4.3763e-07
smoothSolver:  Solving for epsilon, Initial residual = 0.00151868, Final residual = 8.93661e-05, No Iterations 2
smoothSolver:  Solving for k, Initial residual = 0.000160634, Final residual = 1.2818e-05, No Iterations 2
ExecutionTime = 1 s  ClockTime = 1 s

Time = 20000.6

smoothSolver:  Solving for Ux, Initial residual = 0.00027563, Final residual = 2.54862e-05, No Iterations 2
smoothSolver:  Solving for Uy, Initial residual = 0.00195325, Final residual = 0.000108187, No Iterations 3
GAMG:  Solving for p, Initial residual = 0.00021912, Final residual = 1.99424e-05, No Iterations 8
time step continuity errors : sum local = 3.95997e-06, global = 1.19256e-08, cumulative = 4.49555e-07
smoothSolver:  Solving for epsilon, Initial residual = 0.00135941, Final residual = 7.59437e-05, No Iterations 3
smoothSolver:  Solving for k, Initial residual = 0.000178791, Final residual = 1.35396e-05, No Iterations 2
ExecutionTime = 1.01 s  ClockTime = 1 s

Time = 20000.7

smoothSolver:  Solving for Ux, Initial residual = 0.000293277, Final residual = 2.09909e-05, No Iterations 2
smoothSolver:  Solving for Uy, Initial residual = 0.00166379, Final residual = 0.000102558, No Iterations 3
GAMG:  Solving for p, Initial residual = 0.0002385, Final residual = 2.22297e-05, No Iterations 9
time step continuity errors : sum local = 4.41679e-06, global = -1.25964e-09, cumulative = 4.48296e-07
smoothSolver:  Solving for epsilon, Initial residual = 0.00143506, Final residual = 0.000126615, No Iterations 2
smoothSolver:  Solving for k, Initial residual = 0.000168435, Final residual = 1.33478e-05, No Iterations 2
ExecutionTime = 1.04 s  ClockTime = 1 s

Time = 20000.7

smoothSolver:  Solving for Ux, Initial residual = 0.000277706, Final residual = 2.68288e-05, No Iterations 2
smoothSolver:  Solving for Uy, Initial residual = 0.00202394, Final residual = 0.000112341, No Iterations 3
GAMG:  Solving for p, Initial residual = 0.000241152, Final residual = 2.22664e-05, No Iterations 8
time step continuity errors : sum local = 4.4207e-06, global = 3.19803e-09, cumulative = 4.51494e-07
smoothSolver:  Solving for epsilon, Initial residual = 0.00133723, Final residual = 6.70075e-05, No Iterations 3
smoothSolver:  Solving for k, Initial residual = 0.000170255, Final residual = 1.14903e-05, No Iterations 2
ExecutionTime = 1.05 s  ClockTime = 1 s

Time = 20000.7

smoothSolver:  Solving for Ux, Initial residual = 0.000285592, Final residual = 1.9423e-05, No Iterations 2
smoothSolver:  Solving for Uy, Initial residual = 0.00176286, Final residual = 9.64258e-05, No Iterations 3
GAMG:  Solving for p, Initial residual = 0.000209369, Final residual = 1.9035e-05, No Iterations 8
time step continuity errors : sum local = 3.77775e-06, global = 1.19614e-08, cumulative = 4.63455e-07
smoothSolver:  Solving for epsilon, Initial residual = 0.00124598, Final residual = 6.16311e-05, No Iterations 3
smoothSolver:  Solving for k, Initial residual = 0.000168603, Final residual = 1.45416e-05, No Iterations 2
ExecutionTime = 1.07 s  ClockTime = 1 s

Time = 20000.7

smoothSolver:  Solving for Ux, Initial residual = 0.000270589, Final residual = 2.58229e-05, No Iterations 2
smoothSolver:  Solving for Uy, Initial residual = 0.00203172, Final residual = 0.00012993, No Iterations 3
GAMG:  Solving for p, Initial residual = 0.000248727, Final residual = 2.43538e-05, No Iterations 7
time step continuity errors : sum local = 4.82736e-06, global = -3.67576e-09, cumulative = 4.59779e-07
smoothSolver:  Solving for epsilon, Initial residual = 0.00162146, Final residual = 0.000111947, No Iterations 3
smoothSolver:  Solving for k, Initial residual = 0.000186552, Final residual = 1.37243e-05, No Iterations 2
ExecutionTime = 1.08 s  ClockTime = 1 s

Time = 20000.7

smoothSolver:  Solving for Ux, Initial residual = 0.000256845, Final residual = 1.91216e-05, No Iterations 2
smoothSolver:  Solving for Uy, Initial residual = 0.00176011, Final residual = 0.000174657, No Iterations 2
GAMG:  Solving for p, Initial residual = 0.000230388, Final residual = 2.02506e-05, No Iterations 9
time step continuity errors : sum local = 4.02839e-06, global = 1.67663e-08, cumulative = 4.76545e-07
smoothSolver:  Solving for epsilon, Initial residual = 0.00151925, Final residual = 8.94073e-05, No Iterations 2
smoothSolver:  Solving for k, Initial residual = 0.000161944, Final residual = 1.28149e-05, No Iterations 2
ExecutionTime = 1.09 s  ClockTime = 1 s

Time = 20000.7

smoothSolver:  Solving for Ux, Initial residual = 0.000276468, Final residual = 2.55322e-05, No Iterations 2
smoothSolver:  Solving for Uy, Initial residual = 0.00196007, Final residual = 0.000107901, No Iterations 3
GAMG:  Solving for p, Initial residual = 0.000219336, Final residual = 1.99197e-05, No Iterations 8
time step continuity errors : sum local = 3.95547e-06, global = 1.18642e-08, cumulative = 4.8841e-07
smoothSolver:  Solving for epsilon, Initial residual = 0.00136027, Final residual = 7.59906e-05, No Iterations 3
smoothSolver:  Solving for k, Initial residual = 0.000180107, Final residual = 1.36177e-05, No Iterations 2
ExecutionTime = 1.11 s  ClockTime = 1 s

Time = 20000.7

smoothSolver:  Solving for Ux, Initial residual = 0.000292381, Final residual = 2.09741e-05, No Iterations 2
smoothSolver:  Solving for Uy, Initial residual = 0.0016604, Final residual = 0.000102541, No Iterations 3
GAMG:  Solving for p, Initial residual = 0.000238158, Final residual = 2.2224e-05, No Iterations 9
time step continuity errors : sum local = 4.41564e-06, global = -9.43401e-10, cumulative = 4.87466e-07
smoothSolver:  Solving for epsilon, Initial residual = 0.00143432, Final residual = 0.000126554, No Iterations 2
smoothSolver:  Solving for k, Initial residual = 0.000168355, Final residual = 1.33554e-05, No Iterations 2
ExecutionTime = 1.13 s  ClockTime = 1 s

Time = 20000.7

smoothSolver:  Solving for Ux, Initial residual = 0.000277636, Final residual = 2.68877e-05, No Iterations 2
smoothSolver:  Solving for Uy, Initial residual = 0.00201665, Final residual = 0.000112261, No Iterations 3
GAMG:  Solving for p, Initial residual = 0.000241684, Final residual = 2.22587e-05, No Iterations 8
time step continuity errors : sum local = 4.41916e-06, global = 3.84483e-09, cumulative = 4.91311e-07
smoothSolver:  Solving for epsilon, Initial residual = 0.00133699, Final residual = 6.69829e-05, No Iterations 3
smoothSolver:  Solving for k, Initial residual = 0.000169934, Final residual = 1.14687e-05, No Iterations 2
ExecutionTime = 1.14 s  ClockTime = 1 s

Time = 20000.7

smoothSolver:  Solving for Ux, Initial residual = 0.000286952, Final residual = 1.95961e-05, No Iterations 2
smoothSolver:  Solving for Uy, Initial residual = 0.00176961, Final residual = 9.63845e-05, No Iterations 3
GAMG:  Solving for p, Initial residual = 0.00020988, Final residual = 1.90298e-05, No Iterations 8
time step continuity errors : sum local = 3.7767e-06, global = 1.25034e-08, cumulative = 5.03814e-07
smoothSolver:  Solving for epsilon, Initial residual = 0.00124589, Final residual = 6.16155e-05, No Iterations 3
smoothSolver:  Solving for k, Initial residual = 0.000169193, Final residual = 1.45115e-05, No Iterations 2
ExecutionTime = 1.17 s  ClockTime = 1 s

Time = 20000.7

smoothSolver:  Solving for Ux, Initial residual = 0.000271626, Final residual = 2.56793e-05, No Iterations 2
smoothSolver:  Solving for Uy, Initial residual = 0.00204318, Final residual = 0.000129684, No Iterations 3
GAMG:  Solving for p, Initial residual = 0.000249139, Final residual = 2.43515e-05, No Iterations 7
time step continuity errors : sum local = 4.82689e-06, global = -2.95273e-09, cumulative = 5.00862e-07
smoothSolver:  Solving for epsilon, Initial residual = 0.00162192, Final residual = 0.000111987, No Iterations 3
smoothSolver:  Solving for k, Initial residual = 0.000187684, Final residual = 1.37994e-05, No Iterations 2
ExecutionTime = 1.18 s  ClockTime = 1 s

Time = 20000.8

smoothSolver:  Solving for Ux, Initial residual = 0.00025638, Final residual = 1.90633e-05, No Iterations 2
smoothSolver:  Solving for Uy, Initial residual = 0.00175774, Final residual = 0.000174578, No Iterations 2
GAMG:  Solving for p, Initial residual = 0.000230343, Final residual = 2.0257e-05, No Iterations 9
time step continuity errors : sum local = 4.02966e-06, global = 1.74869e-08, cumulative = 5.18349e-07
smoothSolver:  Solving for epsilon, Initial residual = 0.00151888, Final residual = 8.93714e-05, No Iterations 2
smoothSolver:  Solving for k, Initial residual = 0.000160846, Final residual = 1.2849e-05, No Iterations 2
ExecutionTime = 1.2 s  ClockTime = 1 s

Time = 20000.8

smoothSolver:  Solving for Ux, Initial residual = 0.000276816, Final residual = 2.55302e-05, No Iterations 2
smoothSolver:  Solving for Uy, Initial residual = 0.00195292, Final residual = 0.000107822, No Iterations 3
GAMG:  Solving for p, Initial residual = 0.000219207, Final residual = 1.99279e-05, No Iterations 8
time step continuity errors : sum local = 3.9571e-06, global = 1.23048e-08, cumulative = 5.30653e-07
smoothSolver:  Solving for epsilon, Initial residual = 0.00135994, Final residual = 7.59619e-05, No Iterations 3
smoothSolver:  Solving for k, Initial residual = 0.000178567, Final residual = 1.3533e-05, No Iterations 2
ExecutionTime = 1.21 s  ClockTime = 1 s

Time = 20000.8

smoothSolver:  Solving for Ux, Initial residual = 0.000293076, Final residual = 2.09934e-05, No Iterations 2
smoothSolver:  Solving for Uy, Initial residual = 0.00165945, Final residual = 0.00010281, No Iterations 3
GAMG:  Solving for p, Initial residual = 0.000238545, Final residual = 2.22317e-05, No Iterations 9
time step continuity errors : sum local = 4.41719e-06, global = -1.01532e-09, cumulative = 5.29638e-07
smoothSolver:  Solving for epsilon, Initial residual = 0.00143501, Final residual = 0.000126608, No Iterations 2
smoothSolver:  Solving for k, Initial residual = 0.000169155, Final residual = 1.32849e-05, No Iterations 2
ExecutionTime = 1.23 s  ClockTime = 1 s

Time = 20000.8

smoothSolver:  Solving for Ux, Initial residual = 0.000277287, Final residual = 2.68422e-05, No Iterations 2
smoothSolver:  Solving for Uy, Initial residual = 0.00202687, Final residual = 0.000112442, No Iterations 3
GAMG:  Solving for p, Initial residual = 0.000241874, Final residual = 2.22594e-05, No Iterations 8
time step continuity errors : sum local = 4.41932e-06, global = 3.71543e-09, cumulative = 5.33354e-07
smoothSolver:  Solving for epsilon, Initial residual = 0.00133641, Final residual = 6.69638e-05, No Iterations 3
smoothSolver:  Solving for k, Initial residual = 0.000170942, Final residual = 1.15072e-05, No Iterations 2
ExecutionTime = 1.24 s  ClockTime = 1 s

Time = 20000.8

smoothSolver:  Solving for Ux, Initial residual = 0.000285771, Final residual = 1.93306e-05, No Iterations 2
smoothSolver:  Solving for Uy, Initial residual = 0.00176707, Final residual = 9.62756e-05, No Iterations 3
GAMG:  Solving for p, Initial residual = 0.000209417, Final residual = 1.90331e-05, No Iterations 8
time step continuity errors : sum local = 3.77736e-06, global = 1.2351e-08, cumulative = 5.45705e-07
smoothSolver:  Solving for epsilon, Initial residual = 0.0012454, Final residual = 6.16039e-05, No Iterations 3
smoothSolver:  Solving for k, Initial residual = 0.000167599, Final residual = 1.45078e-05, No Iterations 2
ExecutionTime = 1.25 s  ClockTime = 1 s

Time = 20000.8

smoothSolver:  Solving for Ux, Initial residual = 0.000270754, Final residual = 2.58172e-05, No Iterations 2
smoothSolver:  Solving for Uy, Initial residual = 0.00203273, Final residual = 0.00012983, No Iterations 3
GAMG:  Solving for p, Initial residual = 0.000248565, Final residual = 2.43568e-05, No Iterations 7
time step continuity errors : sum local = 4.82792e-06, global = -3.32581e-09, cumulative = 5.42379e-07
smoothSolver:  Solving for epsilon, Initial residual = 0.00162225, Final residual = 0.000112003, No Iterations 3
smoothSolver:  Solving for k, Initial residual = 0.000185684, Final residual = 1.37171e-05, No Iterations 2
ExecutionTime = 1.27 s  ClockTime = 1 s

Time = 20000.8

smoothSolver:  Solving for Ux, Initial residual = 0.00025683, Final residual = 1.91238e-05, No Iterations 2
smoothSolver:  Solving for Uy, Initial residual = 0.0017581, Final residual = 0.00017459, No Iterations 2
GAMG:  Solving for p, Initial residual = 0.00023017, Final residual = 2.02547e-05, No Iterations 9
time step continuity errors : sum local = 4.02919e-06, global = 1.70099e-08, cumulative = 5.59389e-07
smoothSolver:  Solving for epsilon, Initial residual = 0.00151967, Final residual = 8.94244e-05, No Iterations 2
smoothSolver:  Solving for k, Initial residual = 0.00016171, Final residual = 1.28316e-05, No Iterations 2
ExecutionTime = 1.28 s  ClockTime = 1 s

Time = 20000.8

smoothSolver:  Solving for Ux, Initial residual = 0.000276594, Final residual = 2.55787e-05, No Iterations 2
smoothSolver:  Solving for Uy, Initial residual = 0.00195985, Final residual = 0.000107598, No Iterations 3
GAMG:  Solving for p, Initial residual = 0.000219185, Final residual = 1.99397e-05, No Iterations 8
time step continuity errors : sum local = 3.95941e-06, global = 1.20875e-08, cumulative = 5.71476e-07
smoothSolver:  Solving for epsilon, Initial residual = 0.00135973, Final residual = 7.59658e-05, No Iterations 3
smoothSolver:  Solving for k, Initial residual = 0.00017999, Final residual = 1.3576e-05, No Iterations 2
ExecutionTime = 1.3 s  ClockTime = 1 s

Time = 20000.8

smoothSolver:  Solving for Ux, Initial residual = 0.000292764, Final residual = 2.0986e-05, No Iterations 2
smoothSolver:  Solving for Uy, Initial residual = 0.00165868, Final residual = 0.000102415, No Iterations 3
GAMG:  Solving for p, Initial residual = 0.000238343, Final residual = 2.22289e-05, No Iterations 9
time step continuity errors : sum local = 4.41663e-06, global = -9.20766e-10, cumulative = 5.70555e-07
smoothSolver:  Solving for epsilon, Initial residual = 0.0014342, Final residual = 0.000126533, No Iterations 2
smoothSolver:  Solving for k, Initial residual = 0.000168564, Final residual = 1.3411e-05, No Iterations 2
ExecutionTime = 1.31 s  ClockTime = 1 s

Time = 20000.8

smoothSolver:  Solving for Ux, Initial residual = 0.000277511, Final residual = 2.67902e-05, No Iterations 2
smoothSolver:  Solving for Uy, Initial residual = 0.00201319, Final residual = 0.000112237, No Iterations 3
GAMG:  Solving for p, Initial residual = 0.000241376, Final residual = 2.22596e-05, No Iterations 8
time step continuity errors : sum local = 4.41935e-06, global = 3.54307e-09, cumulative = 5.74098e-07
smoothSolver:  Solving for epsilon, Initial residual = 0.00133695, Final residual = 6.69853e-05, No Iterations 3
smoothSolver:  Solving for k, Initial residual = 0.000169911, Final residual = 1.14598e-05, No Iterations 2
ExecutionTime = 1.32 s  ClockTime = 1 s

Time = 20000.9

smoothSolver:  Solving for Ux, Initial residual = 0.000286634, Final residual = 1.95517e-05, No Iterations 2
smoothSolver:  Solving for Uy, Initial residual = 0.00176831, Final residual = 9.71012e-05, No Iterations 3
GAMG:  Solving for p, Initial residual = 0.000209755, Final residual = 1.90243e-05, No Iterations 8
time step continuity errors : sum local = 3.77562e-06, global = 1.2098e-08, cumulative = 5.86196e-07
smoothSolver:  Solving for epsilon, Initial residual = 0.00124569, Final residual = 6.161e-05, No Iterations 3
smoothSolver:  Solving for k, Initial residual = 0.00016845, Final residual = 1.44703e-05, No Iterations 2
ExecutionTime = 1.34 s  ClockTime = 1 s

Time = 20000.9

smoothSolver:  Solving for Ux, Initial residual = 0.000270584, Final residual = 2.57903e-05, No Iterations 2
smoothSolver:  Solving for Uy, Initial residual = 0.00204087, Final residual = 0.000129519, No Iterations 3
GAMG:  Solving for p, Initial residual = 0.000248793, Final residual = 2.43558e-05, No Iterations 7
time step continuity errors : sum local = 4.82773e-06, global = -3.40623e-09, cumulative = 5.8279e-07
smoothSolver:  Solving for epsilon, Initial residual = 0.00162285, Final residual = 0.000112076, No Iterations 3
smoothSolver:  Solving for k, Initial residual = 0.000186349, Final residual = 1.37276e-05, No Iterations 2
ExecutionTime = 1.35 s  ClockTime = 1 s

Time = 20000.9

smoothSolver:  Solving for Ux, Initial residual = 0.000255802, Final residual = 1.91082e-05, No Iterations 2
smoothSolver:  Solving for Uy, Initial residual = 0.00175442, Final residual = 0.000173781, No Iterations 2
GAMG:  Solving for p, Initial residual = 0.000229867, Final residual = 2.02487e-05, No Iterations 9
time step continuity errors : sum local = 4.02802e-06, global = 1.71487e-08, cumulative = 5.99939e-07
smoothSolver:  Solving for epsilon, Initial residual = 0.0015193, Final residual = 8.94048e-05, No Iterations 2
smoothSolver:  Solving for k, Initial residual = 0.000159911, Final residual = 1.28279e-05, No Iterations 2
ExecutionTime = 1.36 s  ClockTime = 1 s

Time = 20000.9

smoothSolver:  Solving for Ux, Initial residual = 0.000275925, Final residual = 2.54454e-05, No Iterations 2
smoothSolver:  Solving for Uy, Initial residual = 0.00195265, Final residual = 0.000108333, No Iterations 3
GAMG:  Solving for p, Initial residual = 0.000218831, Final residual = 1.99368e-05, No Iterations 8
time step continuity errors : sum local = 3.95885e-06, global = 1.19208e-08, cumulative = 6.1186e-07
smoothSolver:  Solving for epsilon, Initial residual = 0.0013594, Final residual = 7.59313e-05, No Iterations 3
smoothSolver:  Solving for k, Initial residual = 0.000177909, Final residual = 1.34982e-05, No Iterations 2
ExecutionTime = 1.37 s  ClockTime = 1 s

Time = 20000.9

smoothSolver:  Solving for Ux, Initial residual = 0.000293012, Final residual = 2.09881e-05, No Iterations 2
smoothSolver:  Solving for Uy, Initial residual = 0.00166269, Final residual = 0.000102786, No Iterations 3
GAMG:  Solving for p, Initial residual = 0.000238294, Final residual = 2.22375e-05, No Iterations 9
time step continuity errors : sum local = 4.41833e-06, global = -1.32876e-09, cumulative = 6.10531e-07
smoothSolver:  Solving for epsilon, Initial residual = 0.00143478, Final residual = 0.000126597, No Iterations 2
smoothSolver:  Solving for k, Initial residual = 0.000169147, Final residual = 1.33639e-05, No Iterations 2
ExecutionTime = 1.38 s  ClockTime = 1 s

Time = 20000.9

smoothSolver:  Solving for Ux, Initial residual = 0.000277663, Final residual = 2.69148e-05, No Iterations 2
smoothSolver:  Solving for Uy, Initial residual = 0.00202433, Final residual = 0.000112279, No Iterations 3
GAMG:  Solving for p, Initial residual = 0.00024164, Final residual = 2.22677e-05, No Iterations 8
time step continuity errors : sum local = 4.42096e-06, global = 3.33347e-09, cumulative = 6.13864e-07
smoothSolver:  Solving for epsilon, Initial residual = 0.0013374, Final residual = 6.70198e-05, No Iterations 3
smoothSolver:  Solving for k, Initial residual = 0.000171145, Final residual = 1.15263e-05, No Iterations 2
ExecutionTime = 1.4 s  ClockTime = 1 s

Time = 20000.9

smoothSolver:  Solving for Ux, Initial residual = 0.000285919, Final residual = 1.94362e-05, No Iterations 2
smoothSolver:  Solving for Uy, Initial residual = 0.00176659, Final residual = 9.6415e-05, No Iterations 3
GAMG:  Solving for p, Initial residual = 0.000209797, Final residual = 1.90324e-05, No Iterations 8
time step continuity errors : sum local = 3.77724e-06, global = 1.20887e-08, cumulative = 6.25953e-07
smoothSolver:  Solving for epsilon, Initial residual = 0.00124584, Final residual = 6.16217e-05, No Iterations 3
smoothSolver:  Solving for k, Initial residual = 0.00016802, Final residual = 1.45356e-05, No Iterations 2
ExecutionTime = 1.41 s  ClockTime = 1 s

Time = 20000.9

smoothSolver:  Solving for Ux, Initial residual = 0.000270921, Final residual = 2.57777e-05, No Iterations 2
smoothSolver:  Solving for Uy, Initial residual = 0.00203347, Final residual = 0.000129962, No Iterations 3
GAMG:  Solving for p, Initial residual = 0.000248468, Final residual = 2.43509e-05, No Iterations 7
time step continuity errors : sum local = 4.82678e-06, global = -3.54818e-09, cumulative = 6.22405e-07
smoothSolver:  Solving for epsilon, Initial residual = 0.00162248, Final residual = 0.000112017, No Iterations 3
smoothSolver:  Solving for k, Initial residual = 0.000185832, Final residual = 1.3746e-05, No Iterations 2
ExecutionTime = 1.42 s  ClockTime = 1 s

Time = 20000.9

smoothSolver:  Solving for Ux, Initial residual = 0.000256632, Final residual = 1.9055e-05, No Iterations 2
smoothSolver:  Solving for Uy, Initial residual = 0.00175749, Final residual = 0.000174926, No Iterations 2
GAMG:  Solving for p, Initial residual = 0.000230134, Final residual = 2.02537e-05, No Iterations 9
time step continuity errors : sum local = 4.02901e-06, global = 1.71033e-08, cumulative = 6.39508e-07
smoothSolver:  Solving for epsilon, Initial residual = 0.00151936, Final residual = 8.94122e-05, No Iterations 2
smoothSolver:  Solving for k, Initial residual = 0.000161232, Final residual = 1.27787e-05, No Iterations 2
ExecutionTime = 1.43 s  ClockTime = 1 s

Time = 20000.9

smoothSolver:  Solving for Ux, Initial residual = 0.000276108, Final residual = 2.55823e-05, No Iterations 2
smoothSolver:  Solving for Uy, Initial residual = 0.00195875, Final residual = 0.000107815, No Iterations 3
GAMG:  Solving for p, Initial residual = 0.000219006, Final residual = 1.99179e-05, No Iterations 8
time step continuity errors : sum local = 3.9551e-06, global = 1.23726e-08, cumulative = 6.51881e-07
smoothSolver:  Solving for epsilon, Initial residual = 0.0013597, Final residual = 7.59606e-05, No Iterations 3
smoothSolver:  Solving for k, Initial residual = 0.000179122, Final residual = 1.36172e-05, No Iterations 2
ExecutionTime = 1.44 s  ClockTime = 1 s

Time = 20001

smoothSolver:  Solving for Ux, Initial residual = 0.000292075, Final residual = 2.10028e-05, No Iterations 2
smoothSolver:  Solving for Uy, Initial residual = 0.00165551, Final residual = 0.000102249, No Iterations 3
GAMG:  Solving for p, Initial residual = 0.000237839, Final residual = 2.2222e-05, No Iterations 9
time step continuity errors : sum local = 4.41526e-06, global = -3.44153e-10, cumulative = 6.51537e-07
smoothSolver:  Solving for epsilon, Initial residual = 0.0014346, Final residual = 0.000126573, No Iterations 2
smoothSolver:  Solving for k, Initial residual = 0.00016761, Final residual = 1.33278e-05, No Iterations 2
ExecutionTime = 1.45 s  ClockTime = 1 s

Time = 20001

smoothSolver:  Solving for Ux, Initial residual = 0.000277151, Final residual = 2.68225e-05, No Iterations 2
smoothSolver:  Solving for Uy, Initial residual = 0.00201418, Final residual = 0.000112296, No Iterations 3
GAMG:  Solving for p, Initial residual = 0.000241491, Final residual = 2.22578e-05, No Iterations 8
time step continuity errors : sum local = 4.41899e-06, global = 4.06865e-09, cumulative = 6.55605e-07
smoothSolver:  Solving for epsilon, Initial residual = 0.00133692, Final residual = 6.69781e-05, No Iterations 3
smoothSolver:  Solving for k, Initial residual = 0.000169423, Final residual = 1.14304e-05, No Iterations 2
ExecutionTime = 1.46 s  ClockTime = 1 s

Time = 20001

smoothSolver:  Solving for Ux, Initial residual = 0.000286528, Final residual = 1.95526e-05, No Iterations 2
smoothSolver:  Solving for Uy, Initial residual = 0.00176608, Final residual = 9.63205e-05, No Iterations 3
GAMG:  Solving for p, Initial residual = 0.000209356, Final residual = 1.90345e-05, No Iterations 8
time step continuity errors : sum local = 3.77763e-06, global = 1.2559e-08, cumulative = 6.68164e-07
smoothSolver:  Solving for epsilon, Initial residual = 0.00124576, Final residual = 6.1604e-05, No Iterations 3
smoothSolver:  Solving for k, Initial residual = 0.000168651, Final residual = 1.45042e-05, No Iterations 2
ExecutionTime = 1.48 s  ClockTime = 1 s

Time = 20001

smoothSolver:  Solving for Ux, Initial residual = 0.000271155, Final residual = 2.56807e-05, No Iterations 2
smoothSolver:  Solving for Uy, Initial residual = 0.00203954, Final residual = 0.000129771, No Iterations 3
GAMG:  Solving for p, Initial residual = 0.000248841, Final residual = 2.4346e-05, No Iterations 7
time step continuity errors : sum local = 4.82578e-06, global = -3.24607e-09, cumulative = 6.64918e-07
smoothSolver:  Solving for epsilon, Initial residual = 0.00162174, Final residual = 0.000111974, No Iterations 3
smoothSolver:  Solving for k, Initial residual = 0.000187154, Final residual = 1.37667e-05, No Iterations 2
ExecutionTime = 1.49 s  ClockTime = 1 s

Time = 20001

smoothSolver:  Solving for Ux, Initial residual = 0.000255985, Final residual = 1.91024e-05, No Iterations 2
smoothSolver:  Solving for Uy, Initial residual = 0.00175552, Final residual = 0.000174708, No Iterations 2
GAMG:  Solving for p, Initial residual = 0.000229948, Final residual = 2.02566e-05, No Iterations 9
time step continuity errors : sum local = 4.02958e-06, global = 1.71362e-08, cumulative = 6.82055e-07
smoothSolver:  Solving for epsilon, Initial residual = 0.00151878, Final residual = 8.93678e-05, No Iterations 2
smoothSolver:  Solving for k, Initial residual = 0.000160626, Final residual = 1.28649e-05, No Iterations 2
ExecutionTime = 1.51 s  ClockTime = 1 s

Time = 20001

smoothSolver:  Solving for Ux, Initial residual = 0.000276414, Final residual = 2.55124e-05, No Iterations 2
smoothSolver:  Solving for Uy, Initial residual = 0.0019503, Final residual = 0.000107774, No Iterations 3
GAMG:  Solving for p, Initial residual = 0.000219029, Final residual = 1.99326e-05, No Iterations 8
time step continuity errors : sum local = 3.95802e-06, global = 1.17606e-08, cumulative = 6.93815e-07
smoothSolver:  Solving for epsilon, Initial residual = 0.00135978, Final residual = 7.59514e-05, No Iterations 3
smoothSolver:  Solving for k, Initial residual = 0.000178303, Final residual = 1.3523e-05, No Iterations 2
ExecutionTime = 1.52 s  ClockTime = 1 s

Time = 20001

smoothSolver:  Solving for Ux, Initial residual = 0.000292987, Final residual = 2.098e-05, No Iterations 2
smoothSolver:  Solving for Uy, Initial residual = 0.00165913, Final residual = 0.000103094, No Iterations 3
GAMG:  Solving for p, Initial residual = 0.000238464, Final residual = 2.22275e-05, No Iterations 9
time step continuity errors : sum local = 4.41633e-06, global = -1.38705e-09, cumulative = 6.92428e-07
smoothSolver:  Solving for epsilon, Initial residual = 0.00143442, Final residual = 0.000126568, No Iterations 2
smoothSolver:  Solving for k, Initial residual = 0.000168868, Final residual = 1.32766e-05, No Iterations 2
ExecutionTime = 1.53 s  ClockTime = 1 s

Time = 20001

smoothSolver:  Solving for Ux, Initial residual = 0.000277081, Final residual = 2.68756e-05, No Iterations 2
smoothSolver:  Solving for Uy, Initial residual = 0.00202463, Final residual = 0.000112376, No Iterations 3
GAMG:  Solving for p, Initial residual = 0.000241526, Final residual = 2.22646e-05, No Iterations 8
time step continuity errors : sum local = 4.42033e-06, global = 3.37076e-09, cumulative = 6.95799e-07
smoothSolver:  Solving for epsilon, Initial residual = 0.00133642, Final residual = 6.69728e-05, No Iterations 3
smoothSolver:  Solving for k, Initial residual = 0.000170509, Final residual = 1.15249e-05, No Iterations 2
ExecutionTime = 1.54 s  ClockTime = 1 s

Time = 20001

smoothSolver:  Solving for Ux, Initial residual = 0.00028576, Final residual = 1.93412e-05, No Iterations 2
smoothSolver:  Solving for Uy, Initial residual = 0.00176554, Final residual = 9.63227e-05, No Iterations 3
GAMG:  Solving for p, Initial residual = 0.000209486, Final residual = 1.90312e-05, No Iterations 8
time step continuity errors : sum local = 3.77698e-06, global = 1.22372e-08, cumulative = 7.08036e-07
smoothSolver:  Solving for epsilon, Initial residual = 0.00124526, Final residual = 6.16067e-05, No Iterations 3
smoothSolver:  Solving for k, Initial residual = 0.000168934, Final residual = 1.45215e-05, No Iterations 2
ExecutionTime = 1.55 s  ClockTime = 1 s

Time = 20001

smoothSolver:  Solving for Ux, Initial residual = 0.000270794, Final residual = 2.585e-05, No Iterations 2
smoothSolver:  Solving for Uy, Initial residual = 0.00203428, Final residual = 0.000129788, No Iterations 3
GAMG:  Solving for p, Initial residual = 0.000248972, Final residual = 2.43536e-05, No Iterations 7
time step continuity errors : sum local = 4.82729e-06, global = -3.36439e-09, cumulative = 7.04672e-07
smoothSolver:  Solving for epsilon, Initial residual = 0.00162197, Final residual = 0.000111985, No Iterations 3
smoothSolver:  Solving for k, Initial residual = 0.000187401, Final residual = 1.37644e-05, No Iterations 2
ExecutionTime = 1.56 s  ClockTime = 1 s

Time = 20001.1

smoothSolver:  Solving for Ux, Initial residual = 0.000257086, Final residual = 1.91413e-05, No Iterations 2
smoothSolver:  Solving for Uy, Initial residual = 0.00176077, Final residual = 0.000174298, No Iterations 2
GAMG:  Solving for p, Initial residual = 0.000230615, Final residual = 2.02531e-05, No Iterations 9
time step continuity errors : sum local = 4.02887e-06, global = 1.70647e-08, cumulative = 7.21736e-07
smoothSolver:  Solving for epsilon, Initial residual = 0.00151939, Final residual = 8.94092e-05, No Iterations 2
smoothSolver:  Solving for k, Initial residual = 0.000161305, Final residual = 1.28356e-05, No Iterations 2
ExecutionTime = 1.58 s  ClockTime = 1 s

Time = 20001.1

smoothSolver:  Solving for Ux, Initial residual = 0.000276891, Final residual = 2.5564e-05, No Iterations 2
smoothSolver:  Solving for Uy, Initial residual = 0.00195925, Final residual = 0.00010762, No Iterations 3
GAMG:  Solving for p, Initial residual = 0.000218871, Final residual = 1.99371e-05, No Iterations 8
time step continuity errors : sum local = 3.9589e-06, global = 1.20868e-08, cumulative = 7.33823e-07
smoothSolver:  Solving for epsilon, Initial residual = 0.00135979, Final residual = 7.59681e-05, No Iterations 3
smoothSolver:  Solving for k, Initial residual = 0.000179323, Final residual = 1.35346e-05, No Iterations 2
ExecutionTime = 1.59 s  ClockTime = 1 s

Time = 20001.1

smoothSolver:  Solving for Ux, Initial residual = 0.000292488, Final residual = 2.10197e-05, No Iterations 2
smoothSolver:  Solving for Uy, Initial residual = 0.00165722, Final residual = 0.000102394, No Iterations 3
GAMG:  Solving for p, Initial residual = 0.000238196, Final residual = 2.22295e-05, No Iterations 9
time step continuity errors : sum local = 4.41675e-06, global = -9.67047e-10, cumulative = 7.32856e-07
smoothSolver:  Solving for epsilon, Initial residual = 0.00143426, Final residual = 0.000126528, No Iterations 2
smoothSolver:  Solving for k, Initial residual = 0.000169569, Final residual = 1.34092e-05, No Iterations 2
ExecutionTime = 1.6 s  ClockTime = 1 s

Time = 20001.1

smoothSolver:  Solving for Ux, Initial residual = 0.000277449, Final residual = 2.68123e-05, No Iterations 2
smoothSolver:  Solving for Uy, Initial residual = 0.00201356, Final residual = 0.000112239, No Iterations 3
GAMG:  Solving for p, Initial residual = 0.000241977, Final residual = 2.22577e-05, No Iterations 8
time step continuity errors : sum local = 4.41898e-06, global = 3.49065e-09, cumulative = 7.36347e-07
smoothSolver:  Solving for epsilon, Initial residual = 0.00133663, Final residual = 6.69627e-05, No Iterations 3
smoothSolver:  Solving for k, Initial residual = 0.000171352, Final residual = 1.14938e-05, No Iterations 2
ExecutionTime = 1.61 s  ClockTime = 1 s

Time = 20001.1

smoothSolver:  Solving for Ux, Initial residual = 0.000286837, Final residual = 1.95535e-05, No Iterations 2
smoothSolver:  Solving for Uy, Initial residual = 0.00177279, Final residual = 9.70617e-05, No Iterations 3
GAMG:  Solving for p, Initial residual = 0.000210164, Final residual = 1.90247e-05, No Iterations 8
time step continuity errors : sum local = 3.77568e-06, global = 1.18854e-08, cumulative = 7.48232e-07
smoothSolver:  Solving for epsilon, Initial residual = 0.00124585, Final residual = 6.16197e-05, No Iterations 3
smoothSolver:  Solving for k, Initial residual = 0.000168157, Final residual = 1.44675e-05, No Iterations 2
ExecutionTime = 1.62 s  ClockTime = 1 s

Time = 20001.1

smoothSolver:  Solving for Ux, Initial residual = 0.000270973, Final residual = 2.57651e-05, No Iterations 2
smoothSolver:  Solving for Uy, Initial residual = 0.00204254, Final residual = 0.000129457, No Iterations 3
GAMG:  Solving for p, Initial residual = 0.000248622, Final residual = 2.4354e-05, No Iterations 7
time step continuity errors : sum local = 4.82737e-06, global = -3.69441e-09, cumulative = 7.44538e-07
smoothSolver:  Solving for epsilon, Initial residual = 0.00162264, Final residual = 0.000112054, No Iterations 3
smoothSolver:  Solving for k, Initial residual = 0.000185805, Final residual = 1.37371e-05, No Iterations 2
ExecutionTime = 1.64 s  ClockTime = 1 s

Time = 20001.1

smoothSolver:  Solving for Ux, Initial residual = 0.000255827, Final residual = 1.90465e-05, No Iterations 2
smoothSolver:  Solving for Uy, Initial residual = 0.00175284, Final residual = 0.000174041, No Iterations 2
GAMG:  Solving for p, Initial residual = 0.000229764, Final residual = 2.02511e-05, No Iterations 9
time step continuity errors : sum local = 4.02848e-06, global = 1.6989e-08, cumulative = 7.61527e-07
smoothSolver:  Solving for epsilon, Initial residual = 0.0015189, Final residual = 8.93791e-05, No Iterations 2
smoothSolver:  Solving for k, Initial residual = 0.000161157, Final residual = 1.2827e-05, No Iterations 2
ExecutionTime = 1.65 s  ClockTime = 1 s

Time = 20001.1

smoothSolver:  Solving for Ux, Initial residual = 0.000275761, Final residual = 2.54733e-05, No Iterations 2
smoothSolver:  Solving for Uy, Initial residual = 0.00195518, Final residual = 0.000108278, No Iterations 3
GAMG:  Solving for p, Initial residual = 0.000219266, Final residual = 1.99375e-05, No Iterations 8
time step continuity errors : sum local = 3.95899e-06, global = 1.21297e-08, cumulative = 7.73656e-07
[...]
time step continuity errors : sum local = 4.41484e-06, global = -4.24025e-10, cumulative = 1.06452e-05
smoothSolver:  Solving for epsilon, Initial residual = 0.00143425, Final residual = 0.000126536, No Iterations 2
smoothSolver:  Solving for k, Initial residual = 0.000167168, Final residual = 1.33313e-05, No Iterations 2
ExecutionTime = 21.37 s  ClockTime = 24 s

Time = 20015.7

smoothSolver:  Solving for Ux, Initial residual = 0.000277185, Final residual = 2.68442e-05, No Iterations 2
smoothSolver:  Solving for Uy, Initial residual = 0.00201394, Final residual = 0.000112325, No Iterations 3
GAMG:  Solving for p, Initial residual = 0.000241652, Final residual = 2.22586e-05, No Iterations 8
time step continuity errors : sum local = 4.41916e-06, global = 3.96881e-09, cumulative = 1.06492e-05
smoothSolver:  Solving for epsilon, Initial residual = 0.00133706, Final residual = 6.6979e-05, No Iterations 3
smoothSolver:  Solving for k, Initial residual = 0.000168612, Final residual = 1.13804e-05, No Iterations 2
ExecutionTime = 21.39 s  ClockTime = 24 s

Time = 20015.7

smoothSolver:  Solving for Ux, Initial residual = 0.00028666, Final residual = 1.95837e-05, No Iterations 2
smoothSolver:  Solving for Uy, Initial residual = 0.00176896, Final residual = 9.63571e-05, No Iterations 3
GAMG:  Solving for p, Initial residual = 0.000209529, Final residual = 1.90369e-05, No Iterations 8
time step continuity errors : sum local = 3.77813e-06, global = 1.23663e-08, cumulative = 1.06615e-05
smoothSolver:  Solving for epsilon, Initial residual = 0.00124574, Final residual = 6.16034e-05, No Iterations 3
smoothSolver:  Solving for k, Initial residual = 0.000167327, Final residual = 1.43975e-05, No Iterations 2
ExecutionTime = 21.4 s  ClockTime = 24 s

Time = 20015.7

smoothSolver:  Solving for Ux, Initial residual = 0.000271442, Final residual = 2.56791e-05, No Iterations 2
smoothSolver:  Solving for Uy, Initial residual = 0.00204254, Final residual = 0.000129778, No Iterations 3
GAMG:  Solving for p, Initial residual = 0.000249077, Final residual = 2.43472e-05, No Iterations 7
time step continuity errors : sum local = 4.82604e-06, global = -3.42812e-09, cumulative = 1.06581e-05
smoothSolver:  Solving for epsilon, Initial residual = 0.00162278, Final residual = 0.000112043, No Iterations 3
smoothSolver:  Solving for k, Initial residual = 0.000185774, Final residual = 1.37222e-05, No Iterations 2
ExecutionTime = 21.42 s  ClockTime = 24 s

Time = 20015.8

smoothSolver:  Solving for Ux, Initial residual = 0.000256141, Final residual = 1.90458e-05, No Iterations 2
smoothSolver:  Solving for Uy, Initial residual = 0.0017567, Final residual = 0.000174815, No Iterations 2
GAMG:  Solving for p, Initial residual = 0.00023007, Final residual = 2.02553e-05, No Iterations 9
time step continuity errors : sum local = 4.02934e-06, global = 1.69582e-08, cumulative = 1.06751e-05
smoothSolver:  Solving for epsilon, Initial residual = 0.00151921, Final residual = 8.93903e-05, No Iterations 2
smoothSolver:  Solving for k, Initial residual = 0.00015954, Final residual = 1.27905e-05, No Iterations 2
ExecutionTime = 21.43 s  ClockTime = 24 s

Time = 20015.8

smoothSolver:  Solving for Ux, Initial residual = 0.000276389, Final residual = 2.55243e-05, No Iterations 2
smoothSolver:  Solving for Uy, Initial residual = 0.00195248, Final residual = 0.000107913, No Iterations 3
GAMG:  Solving for p, Initial residual = 0.000219073, Final residual = 1.99337e-05, No Iterations 8
time step continuity errors : sum local = 3.95825e-06, global = 1.17003e-08, cumulative = 1.06868e-05
smoothSolver:  Solving for epsilon, Initial residual = 0.00135942, Final residual = 7.59325e-05, No Iterations 3
smoothSolver:  Solving for k, Initial residual = 0.000177267, Final residual = 1.34535e-05, No Iterations 2
ExecutionTime = 21.44 s  ClockTime = 24 s

Time = 20015.8

smoothSolver:  Solving for Ux, Initial residual = 0.000292933, Final residual = 2.09522e-05, No Iterations 2
smoothSolver:  Solving for Uy, Initial residual = 0.00165813, Final residual = 0.000102831, No Iterations 3
GAMG:  Solving for p, Initial residual = 0.000238559, Final residual = 2.22297e-05, No Iterations 9
time step continuity errors : sum local = 4.41679e-06, global = -1.37996e-09, cumulative = 1.06854e-05
smoothSolver:  Solving for epsilon, Initial residual = 0.00143477, Final residual = 0.000126587, No Iterations 2
smoothSolver:  Solving for k, Initial residual = 0.000167679, Final residual = 1.32499e-05, No Iterations 2
ExecutionTime = 21.45 s  ClockTime = 24 s

Time = 20015.8

smoothSolver:  Solving for Ux, Initial residual = 0.000277051, Final residual = 2.68198e-05, No Iterations 2
smoothSolver:  Solving for Uy, Initial residual = 0.00202529, Final residual = 0.000112502, No Iterations 3
GAMG:  Solving for p, Initial residual = 0.000241559, Final residual = 2.22612e-05, No Iterations 8
time step continuity errors : sum local = 4.41967e-06, global = 3.46367e-09, cumulative = 1.06888e-05
smoothSolver:  Solving for epsilon, Initial residual = 0.00133744, Final residual = 6.70169e-05, No Iterations 3
smoothSolver:  Solving for k, Initial residual = 0.000169718, Final residual = 1.14705e-05, No Iterations 2
ExecutionTime = 21.47 s  ClockTime = 24 s

Time = 20015.8

smoothSolver:  Solving for Ux, Initial residual = 0.000285562, Final residual = 1.93255e-05, No Iterations 2
smoothSolver:  Solving for Uy, Initial residual = 0.00176478, Final residual = 9.63295e-05, No Iterations 3
GAMG:  Solving for p, Initial residual = 0.000209229, Final residual = 1.9033e-05, No Iterations 8
time step continuity errors : sum local = 3.77736e-06, global = 1.24171e-08, cumulative = 1.07013e-05
smoothSolver:  Solving for epsilon, Initial residual = 0.0012455, Final residual = 6.16042e-05, No Iterations 3
smoothSolver:  Solving for k, Initial residual = 0.000166564, Final residual = 1.44824e-05, No Iterations 2
ExecutionTime = 21.48 s  ClockTime = 24 s

Time = 20015.8

smoothSolver:  Solving for Ux, Initial residual = 0.00027048, Final residual = 2.58601e-05, No Iterations 2
smoothSolver:  Solving for Uy, Initial residual = 0.00203028, Final residual = 0.000129799, No Iterations 3
GAMG:  Solving for p, Initial residual = 0.000248386, Final residual = 2.43594e-05, No Iterations 7
time step continuity errors : sum local = 4.82847e-06, global = -3.28051e-09, cumulative = 1.0698e-05
smoothSolver:  Solving for epsilon, Initial residual = 0.00162232, Final residual = 0.000112003, No Iterations 3
smoothSolver:  Solving for k, Initial residual = 0.000184372, Final residual = 1.36451e-05, No Iterations 2
ExecutionTime = 21.5 s  ClockTime = 24 s

Time = 20015.8

smoothSolver:  Solving for Ux, Initial residual = 0.000256656, Final residual = 1.91571e-05, No Iterations 2
smoothSolver:  Solving for Uy, Initial residual = 0.00175862, Final residual = 0.000174142, No Iterations 2
GAMG:  Solving for p, Initial residual = 0.000230058, Final residual = 2.02535e-05, No Iterations 9
time step continuity errors : sum local = 4.02896e-06, global = 1.71805e-08, cumulative = 1.07152e-05
smoothSolver:  Solving for epsilon, Initial residual = 0.00151985, Final residual = 8.94349e-05, No Iterations 2
smoothSolver:  Solving for k, Initial residual = 0.000159883, Final residual = 1.27496e-05, No Iterations 2
ExecutionTime = 21.51 s  ClockTime = 24 s

Time = 20015.8

smoothSolver:  Solving for Ux, Initial residual = 0.000276602, Final residual = 2.55502e-05, No Iterations 2
smoothSolver:  Solving for Uy, Initial residual = 0.00195875, Final residual = 0.000107749, No Iterations 3
GAMG:  Solving for p, Initial residual = 0.000219142, Final residual = 1.99327e-05, No Iterations 8
time step continuity errors : sum local = 3.95804e-06, global = 1.20908e-08, cumulative = 1.07272e-05
smoothSolver:  Solving for epsilon, Initial residual = 0.00135969, Final residual = 7.59485e-05, No Iterations 3
smoothSolver:  Solving for k, Initial residual = 0.000178443, Final residual = 1.35343e-05, No Iterations 2
ExecutionTime = 21.53 s  ClockTime = 24 s

Time = 20015.8

smoothSolver:  Solving for Ux, Initial residual = 0.000292401, Final residual = 2.10182e-05, No Iterations 2
smoothSolver:  Solving for Uy, Initial residual = 0.0016595, Final residual = 0.000102707, No Iterations 3
GAMG:  Solving for p, Initial residual = 0.000238182, Final residual = 2.2233e-05, No Iterations 9
time step continuity errors : sum local = 4.41745e-06, global = -8.78814e-10, cumulative = 1.07264e-05
smoothSolver:  Solving for epsilon, Initial residual = 0.00143408, Final residual = 0.000126515, No Iterations 2
smoothSolver:  Solving for k, Initial residual = 0.000167415, Final residual = 1.33701e-05, No Iterations 2
ExecutionTime = 21.54 s  ClockTime = 24 s

Time = 20015.8

smoothSolver:  Solving for Ux, Initial residual = 0.000277383, Final residual = 2.68724e-05, No Iterations 2
smoothSolver:  Solving for Uy, Initial residual = 0.00201136, Final residual = 0.000112104, No Iterations 3
GAMG:  Solving for p, Initial residual = 0.000241331, Final residual = 2.22629e-05, No Iterations 8
time step continuity errors : sum local = 4.42001e-06, global = 3.48629e-09, cumulative = 1.07299e-05
smoothSolver:  Solving for epsilon, Initial residual = 0.00133674, Final residual = 6.69717e-05, No Iterations 3
smoothSolver:  Solving for k, Initial residual = 0.000168746, Final residual = 1.14064e-05, No Iterations 2
ExecutionTime = 21.55 s  ClockTime = 24 s

Time = 20015.9

smoothSolver:  Solving for Ux, Initial residual = 0.000286514, Final residual = 1.95544e-05, No Iterations 2
smoothSolver:  Solving for Uy, Initial residual = 0.00176729, Final residual = 9.70399e-05, No Iterations 3
GAMG:  Solving for p, Initial residual = 0.000209809, Final residual = 1.90173e-05, No Iterations 8
time step continuity errors : sum local = 3.77423e-06, global = 1.21755e-08, cumulative = 1.0742e-05
smoothSolver:  Solving for epsilon, Initial residual = 0.00124549, Final residual = 6.15981e-05, No Iterations 3
smoothSolver:  Solving for k, Initial residual = 0.000167015, Final residual = 1.44281e-05, No Iterations 2
ExecutionTime = 21.56 s  ClockTime = 24 s

Time = 20015.9

smoothSolver:  Solving for Ux, Initial residual = 0.000270381, Final residual = 2.57545e-05, No Iterations 2
smoothSolver:  Solving for Uy, Initial residual = 0.00203987, Final residual = 0.000129465, No Iterations 3
GAMG:  Solving for p, Initial residual = 0.000248586, Final residual = 2.43511e-05, No Iterations 7
time step continuity errors : sum local = 4.82682e-06, global = -3.23676e-09, cumulative = 1.07388e-05
smoothSolver:  Solving for epsilon, Initial residual = 0.00162271, Final residual = 0.000112053, No Iterations 3
smoothSolver:  Solving for k, Initial residual = 0.000185139, Final residual = 1.3689e-05, No Iterations 2
ExecutionTime = 21.57 s  ClockTime = 24 s

Time = 20015.9

smoothSolver:  Solving for Ux, Initial residual = 0.0002558, Final residual = 1.90705e-05, No Iterations 2
smoothSolver:  Solving for Uy, Initial residual = 0.00175256, Final residual = 0.000173844, No Iterations 2
GAMG:  Solving for p, Initial residual = 0.00022998, Final residual = 2.02533e-05, No Iterations 9
time step continuity errors : sum local = 4.02892e-06, global = 1.75567e-08, cumulative = 1.07564e-05
smoothSolver:  Solving for epsilon, Initial residual = 0.00151931, Final residual = 8.93959e-05, No Iterations 2
smoothSolver:  Solving for k, Initial residual = 0.000160333, Final residual = 1.28084e-05, No Iterations 2
ExecutionTime = 21.58 s  ClockTime = 24 s

Time = 20015.9

smoothSolver:  Solving for Ux, Initial residual = 0.000276035, Final residual = 2.54945e-05, No Iterations 2
smoothSolver:  Solving for Uy, Initial residual = 0.00195522, Final residual = 0.00010813, No Iterations 3
GAMG:  Solving for p, Initial residual = 0.000219411, Final residual = 1.99351e-05, No Iterations 8
time step continuity errors : sum local = 3.95852e-06, global = 1.23867e-08, cumulative = 1.07687e-05
smoothSolver:  Solving for epsilon, Initial residual = 0.0013593, Final residual = 7.5925e-05, No Iterations 3
smoothSolver:  Solving for k, Initial residual = 0.000178581, Final residual = 1.34947e-05, No Iterations 2
ExecutionTime = 21.6 s  ClockTime = 24 s

Time = 20015.9

smoothSolver:  Solving for Ux, Initial residual = 0.000293532, Final residual = 2.10374e-05, No Iterations 2
smoothSolver:  Solving for Uy, Initial residual = 0.00166765, Final residual = 0.000102525, No Iterations 3
GAMG:  Solving for p, Initial residual = 0.000238698, Final residual = 2.22305e-05, No Iterations 9
time step continuity errors : sum local = 4.41694e-06, global = -7.87968e-10, cumulative = 1.07679e-05
smoothSolver:  Solving for epsilon, Initial residual = 0.00143472, Final residual = 0.000126568, No Iterations 2
smoothSolver:  Solving for k, Initial residual = 0.000167411, Final residual = 1.32463e-05, No Iterations 2
ExecutionTime = 21.62 s  ClockTime = 24 s

Time = 20015.9

smoothSolver:  Solving for Ux, Initial residual = 0.000278008, Final residual = 2.68301e-05, No Iterations 2
smoothSolver:  Solving for Uy, Initial residual = 0.00202756, Final residual = 0.000112329, No Iterations 3
GAMG:  Solving for p, Initial residual = 0.000241551, Final residual = 2.22625e-05, No Iterations 8
time step continuity errors : sum local = 4.41993e-06, global = 3.63247e-09, cumulative = 1.07716e-05
smoothSolver:  Solving for epsilon, Initial residual = 0.0013374, Final residual = 6.70043e-05, No Iterations 3
smoothSolver:  Solving for k, Initial residual = 0.000169209, Final residual = 1.14364e-05, No Iterations 2
ExecutionTime = 21.63 s  ClockTime = 24 s

Time = 20015.9

smoothSolver:  Solving for Ux, Initial residual = 0.000285791, Final residual = 1.94062e-05, No Iterations 2
smoothSolver:  Solving for Uy, Initial residual = 0.0017663, Final residual = 9.64071e-05, No Iterations 3
GAMG:  Solving for p, Initial residual = 0.000209729, Final residual = 1.9035e-05, No Iterations 8
time step continuity errors : sum local = 3.77775e-06, global = 1.2078e-08, cumulative = 1.07837e-05
smoothSolver:  Solving for epsilon, Initial residual = 0.00124592, Final residual = 6.16207e-05, No Iterations 3
smoothSolver:  Solving for k, Initial residual = 0.000168078, Final residual = 1.45062e-05, No Iterations 2
ExecutionTime = 21.65 s  ClockTime = 24 s

Time = 20015.9

smoothSolver:  Solving for Ux, Initial residual = 0.00027101, Final residual = 2.57839e-05, No Iterations 2
smoothSolver:  Solving for Uy, Initial residual = 0.00203556, Final residual = 0.000129913, No Iterations 3
GAMG:  Solving for p, Initial residual = 0.000249135, Final residual = 2.43529e-05, No Iterations 7
time step continuity errors : sum local = 4.82718e-06, global = -3.65209e-09, cumulative = 1.078e-05
smoothSolver:  Solving for epsilon, Initial residual = 0.00162125, Final residual = 0.000111922, No Iterations 3
smoothSolver:  Solving for k, Initial residual = 0.000186301, Final residual = 1.36879e-05, No Iterations 2
ExecutionTime = 21.66 s  ClockTime = 24 s

Time = 20015.9

smoothSolver:  Solving for Ux, Initial residual = 0.000257081, Final residual = 1.90818e-05, No Iterations 2
smoothSolver:  Solving for Uy, Initial residual = 0.00176204, Final residual = 0.00017517, No Iterations 2
GAMG:  Solving for p, Initial residual = 0.000230631, Final residual = 2.02517e-05, No Iterations 9
time step continuity errors : sum local = 4.02861e-06, global = 1.66895e-08, cumulative = 1.07967e-05
smoothSolver:  Solving for epsilon, Initial residual = 0.00151897, Final residual = 8.93838e-05, No Iterations 2
smoothSolver:  Solving for k, Initial residual = 0.00015975, Final residual = 1.27638e-05, No Iterations 2
ExecutionTime = 21.67 s  ClockTime = 24 s

Time = 20015.9

smoothSolver:  Solving for Ux, Initial residual = 0.0002764, Final residual = 2.55669e-05, No Iterations 2
smoothSolver:  Solving for Uy, Initial residual = 0.0019593, Final residual = 0.000107707, No Iterations 3
GAMG:  Solving for p, Initial residual = 0.000218791, Final residual = 1.9925e-05, No Iterations 8
time step continuity errors : sum local = 3.9565e-06, global = 1.18852e-08, cumulative = 1.08086e-05
smoothSolver:  Solving for epsilon, Initial residual = 0.00136052, Final residual = 7.6008e-05, No Iterations 3
smoothSolver:  Solving for k, Initial residual = 0.000177543, Final residual = 1.35061e-05, No Iterations 2
ExecutionTime = 21.69 s  ClockTime = 24 s

Time = 20016

smoothSolver:  Solving for Ux, Initial residual = 0.000292206, Final residual = 2.09662e-05, No Iterations 2
smoothSolver:  Solving for Uy, Initial residual = 0.00165414, Final residual = 0.000102173, No Iterations 3
GAMG:  Solving for p, Initial residual = 0.000237961, Final residual = 2.22223e-05, No Iterations 9
time step continuity errors : sum local = 4.4153e-06, global = -9.43581e-10, cumulative = 1.08076e-05
smoothSolver:  Solving for epsilon, Initial residual = 0.00143438, Final residual = 0.000126552, No Iterations 2
smoothSolver:  Solving for k, Initial residual = 0.000167861, Final residual = 1.33344e-05, No Iterations 2
ExecutionTime = 21.7 s  ClockTime = 24 s

Time = 20016

smoothSolver:  Solving for Ux, Initial residual = 0.000277254, Final residual = 2.68102e-05, No Iterations 2
smoothSolver:  Solving for Uy, Initial residual = 0.00201706, Final residual = 0.00011236, No Iterations 3
GAMG:  Solving for p, Initial residual = 0.00024206, Final residual = 2.22556e-05, No Iterations 8
time step continuity errors : sum local = 4.41856e-06, global = 3.88199e-09, cumulative = 1.08115e-05
smoothSolver:  Solving for epsilon, Initial residual = 0.00133688, Final residual = 6.69731e-05, No Iterations 3
smoothSolver:  Solving for k, Initial residual = 0.000169711, Final residual = 1.14293e-05, No Iterations 2
ExecutionTime = 21.71 s  ClockTime = 24 s

Time = 20016

smoothSolver:  Solving for Ux, Initial residual = 0.000287158, Final residual = 1.95962e-05, No Iterations 2
smoothSolver:  Solving for Uy, Initial residual = 0.00177331, Final residual = 9.64189e-05, No Iterations 3
GAMG:  Solving for p, Initial residual = 0.000209828, Final residual = 1.90359e-05, No Iterations 8
time step continuity errors : sum local = 3.77793e-06, global = 1.24193e-08, cumulative = 1.08239e-05
smoothSolver:  Solving for epsilon, Initial residual = 0.00124613, Final residual = 6.16213e-05, No Iterations 3
smoothSolver:  Solving for k, Initial residual = 0.000166759, Final residual = 1.44213e-05, No Iterations 2
ExecutionTime = 21.73 s  ClockTime = 24 s

Time = 20016

smoothSolver:  Solving for Ux, Initial residual = 0.000271635, Final residual = 2.57202e-05, No Iterations 2
smoothSolver:  Solving for Uy, Initial residual = 0.00204303, Final residual = 0.000129774, No Iterations 3
GAMG:  Solving for p, Initial residual = 0.000248758, Final residual = 2.43557e-05, No Iterations 7
time step continuity errors : sum local = 4.82773e-06, global = -3.34129e-09, cumulative = 1.08206e-05
smoothSolver:  Solving for epsilon, Initial residual = 0.00162193, Final residual = 0.000111989, No Iterations 3
smoothSolver:  Solving for k, Initial residual = 0.000184949, Final residual = 1.36721e-05, No Iterations 2
ExecutionTime = 21.74 s  ClockTime = 24 s

Time = 20016

smoothSolver:  Solving for Ux, Initial residual = 0.00025616, Final residual = 1.91175e-05, No Iterations 2
smoothSolver:  Solving for Uy, Initial residual = 0.00175601, Final residual = 0.000174449, No Iterations 2
GAMG:  Solving for p, Initial residual = 0.000229925, Final residual = 2.02541e-05, No Iterations 9
time step continuity errors : sum local = 4.0291e-06, global = 1.70178e-08, cumulative = 1.08376e-05
smoothSolver:  Solving for epsilon, Initial residual = 0.00151895, Final residual = 8.93759e-05, No Iterations 2
smoothSolver:  Solving for k, Initial residual = 0.000160253, Final residual = 1.28281e-05, No Iterations 2
ExecutionTime = 21.76 s  ClockTime = 24 s

End

