/*---------------------------------------------------------------------------*\
  =========                 |
  \\      /  F ield         | OpenFOAM: The Open Source CFD Toolbox
   \\    /   O peration     | Website:  https://openfoam.org
    \\  /    A nd           | Version:  8
     \\/     M anipulation  |
\*---------------------------------------------------------------------------*/
Build  : 8-9b73cf21a682
Exec   : blockMesh
Date   : Oct 12 2020
Time   : 11:56:20
Host   : "neowind"
PID    : 292165
I/O    : uncollated
Case   : /home/sbkimwind/Work/git/openfoam_seo/of/org/jbk2/tower_lon_piso1
nProcs : 1
sigFpe : Enabling floating point exception trapping (FOAM_SIGFPE).
fileModificationChecking : Monitoring run-time modified files using timeStampMaster (fileModificationSkew 10)
allowSystemOperations : Allowing user-supplied system call operations

// * * * * * * * * * * * * * * * * * * * * * * * * * * * * * * * * * * * * * //
Create time

Deleting polyMesh directory
    "/home/sbkimwind/Work/git/openfoam_seo/of/org/jbk2/tower_lon_piso1/constant/polyMesh"
Creating block mesh from
    "system/blockMeshDict"
Creating block edges
No non-planar block faces defined
Creating topology blocks
Creating topology patches

Creating block mesh topology
--> FOAM Warning : 
    From function Foam::polyMesh::polyMesh(const Foam::IOobject&, Foam::pointField&&, const cellShapeList&, const faceListList&, const wordList&, const Foam::PtrList<Foam::dictionary>&, const Foam::word&, const Foam::word&, bool)
    in file meshes/polyMesh/polyMeshFromShapeMesh.C at line 873
    Found 590 undefined faces in mesh; adding to default patch.

Check topology

	Basic statistics
		Number of internal faces : 7847
		Number of boundary faces : 8960
		Number of defined boundary faces : 8960
		Number of undefined boundary faces : 0
	Checking patch -> block consistency

Creating block offsets
Creating merge list ...

Creating polyMesh from blockMesh
Creating patches
Creating cells
Creating points with scale 1
    Block 0 cell size :
        i : 1
        j : 0.1082 0.1082 0.097042 0.097042 
        k : 0.0665668 0.0665668 0.095879 0.095879 
    Block 1 cell size :
        i : 1
        j : 0.0900646 0.0900646 0.0830797 0.0830797 
        k : 0.0579234 0.0579234 0.1082 0.1082 
    Block 2 cell size :
        i : 1
        j : 0.0665668 0.0665668 0.0808445 0.0808445 
        k : 0.094089 0.094089 0.092719 0.092719 
    Block 3 cell size :
        i : 1
        j : 0.0459076 0.0459076 0.091876 0.091876 
        k : 0.0900646 0.0900646 0.0555519 0.0555519 
    Block 4 cell size :
        i : 1
        j : 0.0579234 0.0579234 0.0748533 0.0748533 
        k : 0.0459076 0.0459076 0.0599098 0.0599098 
    Block 5 cell size :
        i : 1
        j : 0.0830797 0.0830797 0.0720855 0.0720855 
        k : 0.0744565 0.0744565 0.094089 0.094089 
    Block 6 cell size :
        i : 1
        j : 0.0628465 0.0628465 0.0744565 0.0744565 
        k : 0.050671 0.050671 0.0599098 0.0599098 
    Block 7 cell size :
        i : 1
        j : 0.0908984 0.0908984 0.0808445 0.0808445 
        k : 0.08859 0.08859 0.104649 0.104649 
    Block 8 cell size :
        i : 1
        j : 0.0580761 0.0580761 0.0628465 0.0628465 
        k : 0.0566905 0.0566905 0.0604125 0.0604125 
    Block 9 cell size :
        i : 1
        j : 0.0732881 0.0732881 0.088039 0.088039 
        k : 0.0555519 0.0555519 0.0709072 0.0709072 
    Block 10 cell size :
        i : 1
        j : 0.0604125 0.0604125 0.0732881 0.0732881 
        k : 0.0748533 0.0748533 0.0640291 0.0640291 
    Block 11 cell size :
        i : 1
        j : 0.0373723 0.0373723 0.0566905 0.0566905 
        k : 0.0475669 0.0475669 0.0587015 0.0587015 
    Block 12 cell size :
        i : 1
        j : 0.0773152 0.0773152 0.085771 0.085771 
        k : 0.0463335 0.0463335 0.0908984 0.0908984 
    Block 13 cell size :
        i : 1
        j : 0.0720855 0.0720855 0.0954285 0.0954285 
        k : 0.0862467 0.0862467 0.104649 0.104649 
    Block 14 cell size :
        i : 1
        j : 0.0475669 0.0475669 0.0862467 0.0862467 
        k : 0.0533247 0.0533247 0.050671 0.050671 
    Block 15 cell size :
        i : 1
        j : 0.0581679 0.0581679 0.0580761 0.0580761 
        k : 0.0505904 0.0505904 0.0587278 0.0587278 
    Block 16 cell size :
        i : 1
        j : 0.0852842 0.0852842 0.084934 0.084934 
        k : 0.0709072 0.0709072 0.086351 0.086351 
    Block 17 cell size :
        i : 1
        j : 0.0639813 0.0639813 0.0640291 0.0640291 
        k : 0.0587278 0.0587278 0.0852842 0.0852842 
    Block 18 cell size :
        i : 1
        j : 0.0532251 0.0532251 0.0587015 0.0587015 
        k : 0.052632 0.052632 0.0505904 0.0505904 
    Block 19 cell size :
        i : 1
        j : 0.0373723 0.0373723 0.0742181 0.0742181 
        k : 0.052632 0.052632 0.0533247 0.0533247 
    Block 20 cell size :
        i : 1
        j : 0.0463335 0.0463335 0.081112 0.081112 
        k : 0.0747885 0.0747885 0.085697 0.085697 
    Block 21 cell size :
        i : 1
        j : 0.0747885 0.0747885 0.0876803 0.0876803 
        k : 0.0773152 0.0773152 0.0773056 0.0773056 
    Block 22 cell size :
        i : 1
        j : 0.0788408 0.0788408 0.0876803 0.0876803 
        k : 0.0607231 0.0607231 0.0954285 0.0954285 
    Block 23 cell size :
        i : 1
        j : 0.0393155 0.0393155 0.0482283 0.0482283 
        k : 0.0376679 0.0376679 0.0581679 0.0581679 
    Block 24 cell size :
        i : 1
        j : 0.0402948 0.0402948 0.0639813 0.0639813 
        k : 0.0393155 0.0393155 0.0672016 0.0672016 
    Block 25 cell size :
        i : 1
        j : 0.074188 0.074188 0.086351 0.086351 
        k : 0.087116 0.087116 0.084616 0.084616 
    Block 26 cell size :
        i : 1
        j : 0.0947685 0.0947685 0.12207 0.12207 
        k : 0.092603 0.092603 0.08859 0.08859 
    Block 27 cell size :
        i : 1
        j : 0.0439263 0.0439263 0.092603 0.092603 
        k : 0.0837398 0.0837398 0.0746876 0.0746876 
    Block 28 cell size :
        i : 1
        j : 0.085771 0.085771 0.0805983 0.0805983 
        k : 0.0852964 0.0852964 0.0947685 0.0947685 
    Block 29 cell size :
        i : 1
        j : 0.0532251 0.0532251 0.0505069 0.0505069 
        k : 0.0482283 0.0482283 0.052631 0.052631 
    Block 30 cell size :
        i : 1
        j : 0.052632 0.052632 0.0530745 0.0530745 
        k : 0.0521159 0.0521159 0.052632 0.052632 
    Block 31 cell size :
        i : 1
        j : 0.0742181 0.0742181 0.0609561 0.0609561 
        k : 0.052631 0.052631 0.0788408 0.0788408 
    Block 32 cell size :
        i : 1
        j : 0.0921483 0.0921483 0.085735 0.085735 
        k : 0.0731819 0.0731819 0.081112 0.081112 
    Block 33 cell size :
        i : 1
        j : 0.048597 0.048597 0.0696575 0.0696575 
        k : 0.0465319 0.0465319 0.0773056 0.0773056 
    Block 34 cell size :
        i : 1
        j : 0.0353576 0.0353576 0.0607231 0.0607231 
        k : 0.048597 0.048597 0.0560942 0.0560942 
    Block 35 cell size :
        i : 1
        j : 0.0376679 0.0376679 0.0489757 0.0489757 
        k : 0.0402948 0.0402948 0.0523187 0.0523187 
    Block 36 cell size :
        i : 1
        j : 0.0507625 0.0507625 0.0672016 0.0672016 
        k : 0.0488092 0.0488092 0.087116 0.087116 
    Block 37 cell size :
        i : 1
        j : 0.0797098 0.0797098 0.074188 0.074188 
        k : 0.0729664 0.0729664 0.084651 0.084651 
    Block 38 cell size :
        i : 1
        j : 0.0837398 0.0837398 0.076849 0.076849 
        k : 0.0695847 0.0695847 0.0986084 0.0986084 
    Block 39 cell size :
        i : 1
        j : 0.106999 0.106999 0.092719 0.092719 
        k : 0.103594 0.103594 0.12207 0.12207 
    Block 40 cell size :
        i : 1
        j : 0.0778845 0.0778845 0.0805983 0.0805983 
        k : 0.0746876 0.0746876 0.0894923 0.0894923 
    Block 41 cell size :
        i : 1
        j : 0.0695847 0.0695847 0.0823465 0.0823465 
        k : 0.0439263 0.0439263 0.052632 0.052632 
    Block 42 cell size :
        i : 1
        j : 0.0777534 0.0777534 0.0852964 0.0852964 
        k : 0.0781033 0.0781033 0.085697 0.085697 
    Block 43 cell size :
        i : 1
        j : 0.0505069 0.0505069 0.0604499 0.0604499 
        k : 0.0523187 0.0523187 0.052632 0.052632 
    Block 44 cell size :
        i : 1
        j : 0.052631 0.052631 0.0526082 0.0526082 
        k : 0.0517647 0.0517647 0.0521159 0.0521159 
    Block 45 cell size :
        i : 1
        j : 0.085783 0.085783 0.0872056 0.0872056 
        k : 0.0762296 0.0762296 0.0907534 0.0907534 
    Block 46 cell size :
        i : 1
        j : 0.0802411 0.0802411 0.085772 0.085772 
        k : 0.0762296 0.0762296 0.0731819 0.0731819 
    Block 47 cell size :
        i : 1
        j : 0.052631 0.052631 0.0520246 0.0520246 
        k : 0.0530745 0.0530745 0.0539749 0.0539749 
    Block 48 cell size :
        i : 1
        j : 0.0527481 0.0527481 0.0609561 0.0609561 
        k : 0.0560942 0.0560942 0.052632 0.052632 
    Block 49 cell size :
        i : 1
        j : 0.0696575 0.0696575 0.0654586 0.0654586 
        k : 0.0637281 0.0637281 0.0921483 0.0921483 
    Block 50 cell size :
        i : 1
        j : 0.0465319 0.0465319 0.051592 0.051592 
        k : 0.0353576 0.0353576 0.0529146 0.0529146 
    Block 51 cell size :
        i : 1
        j : 0.0488092 0.0488092 0.0867402 0.0867402 
        k : 0.0676893 0.0676893 0.0489757 0.0489757 
    Block 52 cell size :
        i : 1
        j : 0.0676893 0.0676893 0.0729664 0.0729664 
        k : 0.0507625 0.0507625 0.0908346 0.0908346 
    Block 53 cell size :
        i : 1
        j : 0.0797098 0.0797098 0.0831314 0.0831314 
        k : 0.084687 0.084687 0.0859399 0.0859399 
    Block 54 cell size :
        i : 1
        j : 0.076849 0.076849 0.0698866 0.0698866 
        k : 0.052632 0.052632 0.0742004 0.0742004 
    Block 55 cell size :
        i : 1
        j : 0.0873244 0.0873244 0.106999 0.106999 
        k : 0.0969924 0.0969924 0.0986084 0.0986084 
    Block 56 cell size :
        i : 1
        j : 0.0974858 0.0974858 0.097042 0.097042 
        k : 0.095879 0.095879 0.103594 0.103594 
    Block 57 cell size :
        i : 1
        j : 0.0698894 0.0698894 0.0894923 0.0894923 
        k : 0.076457 0.076457 0.0781033 0.0781033 
    Block 58 cell size :
        i : 1
        j : 0.0800888 0.0800888 0.0823465 0.0823465 
        k : 0.052631 0.052631 0.0778845 0.0778845 
    Block 59 cell size :
        i : 1
        j : 0.052428 0.052428 0.052632 0.052632 
        k : 0.0515574 0.0515574 0.052632 0.052632 
    Block 60 cell size :
        i : 1
        j : 0.0776619 0.0776619 0.0777534 0.0777534 
        k : 0.0736463 0.0736463 0.085735 0.085735 
    Block 61 cell size :
        i : 1
        j : 0.0889527 0.0889527 0.085782 0.085782 
        k : 0.0675548 0.0675548 0.0907534 0.0907534 
    Block 62 cell size :
        i : 1
        j : 0.0898779 0.0898779 0.0604499 0.0604499 
        k : 0.052631 0.052631 0.0867402 0.0867402 
    Block 63 cell size :
        i : 1
        j : 0.0516629 0.0516629 0.052632 0.052632 
        k : 0.0517647 0.0517647 0.0520629 0.0520629 
    Block 64 cell size :
        i : 1
        j : 0.0526082 0.0526082 0.0531123 0.0531123 
        k : 0.0512457 0.0512457 0.0520246 0.0520246 
    Block 65 cell size :
        i : 1
        j : 0.0664924 0.0664924 0.0802411 0.0802411 
        k : 0.0675437 0.0675437 0.0654586 0.0654586 
    Block 66 cell size :
        i : 1
        j : 0.0620182 0.0620182 0.0872056 0.0872056 
        k : 0.0679349 0.0679349 0.0675437 0.0675437 
    Block 67 cell size :
        i : 1
        j : 0.052632 0.052632 0.0520653 0.0520653 
        k : 0.0539749 0.0539749 0.0555117 0.0555117 
    Block 68 cell size :
        i : 1
        j : 0.051592 0.051592 0.052631 0.052631 
        k : 0.0527481 0.0527481 0.0527369 0.0527369 
    Block 69 cell size :
        i : 1
        j : 0.0555106 0.0555106 0.0637281 0.0637281 
        k : 0.0578307 0.0578307 0.0529146 0.0529146 
    Block 70 cell size :
        i : 1
        j : 0.0831314 0.0831314 0.0878595 0.0878595 
        k : 0.084709 0.084709 0.0957789 0.0957789 
    Block 71 cell size :
        i : 1
        j : 0.06326 0.06326 0.0908346 0.0908346 
        k : 0.0990208 0.0990208 0.0859399 0.0859399 
    Block 72 cell size :
        i : 1
        j : 0.0273482 0.0273482 0.0386647 0.0386647 
        k : 0.0421664 0.0421664 0.0429729 0.0429729 
    Block 73 cell size :
        i : 1
        j : 0.0552862 0.0552862 0.0878595 0.0878595 
        k : 0.0867685 0.0867685 0.084709 0.084709 
    Block 74 cell size :
        i : 1
        j : 0.0421664 0.0421664 0.0867685 0.0867685 
        k : 0.0562193 0.0562193 0.0541467 0.0541467 
    Block 75 cell size :
        i : 1
        j : 0.0630614 0.0630614 0.0698866 0.0698866 
        k : 0.0475417 0.0475417 0.052631 0.052631 
    Block 76 cell size :
        i : 1
        j : 0.0483655 0.0483655 0.0835431 0.0835431 
        k : 0.0679039 0.0679039 0.0475417 0.0475417 
    Block 77 cell size :
        i : 1
        j : 0.0873244 0.0873244 0.0835431 0.0835431 
        k : 0.0742004 0.0742004 0.100314 0.100314 
    Block 78 cell size :
        i : 1
        j : 0.095575 0.095575 0.0974858 0.0974858 
        k : 0.091876 0.091876 0.0969924 0.0969924 
    Block 79 cell size :
        i : 1
        j : 0.0664922 0.0664922 0.0698894 0.0698894 
        k : 0.063111 0.063111 0.0736463 0.0736463 
    Block 80 cell size :
        i : 1
        j : 0.0424402 0.0424402 0.076457 0.076457 
        k : 0.0520287 0.0520287 0.0551901 0.0551901 
    Block 81 cell size :
        i : 1
        j : 0.0520287 0.0520287 0.052632 0.052632 
        k : 0.0406319 0.0406319 0.0800888 0.0800888 
    Block 82 cell size :
        i : 1
        j : 0.0527513 0.0527513 0.052428 0.052428 
        k : 0.0514508 0.0514508 0.052631 0.052631 
    Block 83 cell size :
        i : 1
        j : 0.0519168 0.0519168 0.052631 0.052631 
        k : 0.0506667 0.0506667 0.0515574 0.0515574 
    Block 84 cell size :
        i : 1
        j : 0.0593695 0.0593695 0.0664922 0.0664922 
        k : 0.0573601 0.0573601 0.0573417 0.0573417 
    Block 85 cell size :
        i : 1
        j : 0.0955812 0.0955812 0.0776619 0.0776619 
        k : 0.0573417 0.0573417 0.085772 0.085772 
    Block 86 cell size :
        i : 1
        j : 0.0561363 0.0561363 0.085783 0.085783 
        k : 0.0825832 0.0825832 0.0675548 0.0675548 
    Block 87 cell size :
        i : 1
        j : 0.0389712 0.0389712 0.0667127 0.0667127 
        k : 0.0418338 0.0418338 0.0679349 0.0679349 
    Block 88 cell size :
        i : 1
        j : 0.0667127 0.0667127 0.0711852 0.0711852 
        k : 0.0609281 0.0609281 0.0889527 0.0889527 
    Block 89 cell size :
        i : 1
        j : 0.0459418 0.0459418 0.0990208 0.0990208 
        k : 0.0579664 0.0579664 0.066734 0.066734 
    Block 90 cell size :
        i : 1
        j : 0.0579664 0.0579664 0.052632 0.052632 
        k : 0.041383 0.041383 0.0898779 0.0898779 
    Block 91 cell size :
        i : 1
        j : 0.050978 0.050978 0.052631 0.052631 
        k : 0.0520629 0.0520629 0.0539415 0.0539415 
    Block 92 cell size :
        i : 1
        j : 0.0507008 0.0507008 0.0516629 0.0516629 
        k : 0.0512457 0.0512457 0.0503147 0.0503147 
    Block 93 cell size :
        i : 1
        j : 0.0531123 0.0531123 0.0547515 0.0547515 
        k : 0.0509529 0.0509529 0.0520653 0.0520653 
    Block 94 cell size :
        i : 1
        j : 0.0569374 0.0569374 0.0664924 0.0664924 
        k : 0.0582325 0.0582325 0.0578307 0.0578307 
    Block 95 cell size :
        i : 1
        j : 0.0535324 0.0535324 0.0620182 0.0620182 
        k : 0.0612148 0.0612148 0.0582325 0.0582325 
    Block 96 cell size :
        i : 1
        j : 0.052631 0.052631 0.0525486 0.0525486 
        k : 0.0555117 0.0555117 0.0575285 0.0575285 
    Block 97 cell size :
        i : 1
        j : 0.052632 0.052632 0.0555106 0.0555106 
        k : 0.0546746 0.0546746 0.0527369 0.0527369 
    Block 98 cell size :
        i : 1
        j : 0.030916 0.030916 0.0429729 0.0429729 
        k : 0.0315102 0.0315102 0.0297612 0.0297612 
    Block 99 cell size :
        i : 1
        j : 0.0562193 0.0562193 0.0728979 0.0728979 
        k : 0.0273482 0.0273482 0.0903911 0.0903911 
    Block 100 cell size :
        i : 1
        j : 0.06326 0.06326 0.0903911 0.0903911 
        k : 0.0957789 0.0957789 0.0862084 0.0862084 
    Block 101 cell size :
        i : 1
        j : 0.039566 0.039566 0.0386647 0.0386647 
        k : 0.0329722 0.0329722 0.053524 0.053524 
    Block 102 cell size :
        i : 1
        j : 0.0329722 0.0329722 0.0469901 0.0469901 
        k : 0.0320417 0.0320417 0.0297612 0.0297612 
    Block 103 cell size :
        i : 1
        j : 0.0504097 0.0504097 0.0541467 0.0541467 
        k : 0.053524 0.053524 0.076526 0.076526 
    Block 104 cell size :
        i : 1
        j : 0.0552862 0.0552862 0.0692444 0.0692444 
        k : 0.084709 0.084709 0.076526 0.076526 
    Block 105 cell size :
        i : 1
        j : 0.0630614 0.0630614 0.058114 0.058114 
        k : 0.052632 0.052632 0.0643711 0.0643711 
    Block 106 cell size :
        i : 1
        j : 0.042948 0.042948 0.0643711 0.0643711 
        k : 0.0483655 0.0483655 0.0621327 0.0621327 
    Block 107 cell size :
        i : 1
        j : 0.0679039 0.0679039 0.0590246 0.0590246 
        k : 0.042948 0.042948 0.0798778 0.0798778 
    Block 108 cell size :
        i : 1
        j : 0.101093 0.101093 0.095575 0.095575 
        k : 0.088039 0.088039 0.100314 0.100314 
    Block 109 cell size :
        i : 1
        j : 0.0560711 0.0560711 0.0551901 0.0551901 
        k : 0.0540905 0.0540905 0.063111 0.063111 
    Block 110 cell size :
        i : 1
        j : 0.055 0.055 0.0560711 0.0560711 
        k : 0.0527398 0.0527398 0.0573601 0.0573601 
    Block 111 cell size :
        i : 1
        j : 0.0406319 0.0406319 0.0477048 0.0477048 
        k : 0.0424402 0.0424402 0.052631 0.052631 
    Block 112 cell size :
        i : 1
        j : 0.0527513 0.0527513 0.0539695 0.0539695 
        k : 0.052632 0.052632 0.051433 0.051433 
    Block 113 cell size :
        i : 1
        j : 0.0517756 0.0517756 0.0519168 0.0519168 
        k : 0.0501071 0.0501071 0.0514508 0.0514508 
    Block 114 cell size :
        i : 1
        j : 0.0509826 0.0509826 0.052632 0.052632 
        k : 0.0504683 0.0504683 0.0506667 0.0506667 
    Block 115 cell size :
        i : 1
        j : 0.0613891 0.0613891 0.0711852 0.0711852 
        k : 0.0561363 0.0561363 0.0759223 0.0759223 
    Block 116 cell size :
        i : 1
        j : 0.0494837 0.0494837 0.0593695 0.0593695 
        k : 0.0372679 0.0372679 0.0782239 0.0782239 
    Block 117 cell size :
        i : 1
        j : 0.0825832 0.0825832 0.0782239 0.0782239 
        k : 0.0613891 0.0613891 0.0955812 0.0955812 
    Block 118 cell size :
        i : 1
        j : 0.0367142 0.0367142 0.0612148 0.0612148 
        k : 0.0389712 0.0389712 0.0481902 0.0481902 
    Block 119 cell size :
        i : 1
        j : 0.0418338 0.0418338 0.0487376 0.0487376 
        k : 0.0367142 0.0367142 0.0501428 0.0501428 
    Block 120 cell size :
        i : 1
        j : 0.0609281 0.0609281 0.0541317 0.0541317 
        k : 0.0501428 0.0501428 0.0581805 0.0581805 
    Block 121 cell size :
        i : 1
        j : 0.0372679 0.0372679 0.0491358 0.0491358 
        k : 0.041842 0.041842 0.055 0.055 
    Block 122 cell size :
        i : 1
        j : 0.0684856 0.0684856 0.066734 0.066734 
        k : 0.0462578 0.0462578 0.0862084 0.0862084 
    Block 123 cell size :
        i : 1
        j : 0.041383 0.041383 0.0417999 0.0417999 
        k : 0.0459418 0.0459418 0.052631 0.052631 
    Block 124 cell size :
        i : 1
        j : 0.0539415 0.0539415 0.0573197 0.0573197 
        k : 0.052632 0.052632 0.0518827 0.0518827 
    Block 125 cell size :
        i : 1
        j : 0.050978 0.050978 0.0536152 0.0536152 
        k : 0.0522819 0.0522819 0.0503147 0.0503147 
    Block 126 cell size :
        i : 1
        j : 0.0514245 0.0514245 0.0507008 0.0507008 
        k : 0.0509529 0.0509529 0.0518402 0.0518402 
    Block 127 cell size :
        i : 1
        j : 0.0547515 0.0547515 0.0575033 0.0575033 
        k : 0.0522721 0.0522721 0.0525486 0.0525486 
    Block 128 cell size :
        i : 1
        j : 0.052632 0.052632 0.0535324 0.0535324 
        k : 0.0505351 0.0505351 0.0542158 0.0542158 
    Block 129 cell size :
        i : 1
        j : 0.052631 0.052631 0.0569374 0.0569374 
        k : 0.0542158 0.0542158 0.0546746 0.0546746 
    Block 130 cell size :
        i : 1
        j : 0.052632 0.052632 0.0532022 0.0532022 
        k : 0.0575285 0.0575285 0.0594214 0.0594214 
    Block 131 cell size :
        i : 1
        j : 0.0418367 0.0418367 0.0401198 0.0401198 
        k : 0.030916 0.030916 0.0512326 0.0512326 
    Block 132 cell size :
        i : 1
        j : 0.0315102 0.0315102 0.0728072 0.0728072 
        k : 0.0418367 0.0418367 0.0728979 0.0728979 
    Block 133 cell size :
        i : 1
        j : 0.0320417 0.0320417 0.0567336 0.0567336 
        k : 0.039566 0.039566 0.0635376 0.0635376 
    Block 134 cell size :
        i : 1
        j : 0.0321381 0.0321381 0.0401198 0.0401198 
        k : 0.0483848 0.0483848 0.0469901 0.0469901 
    Block 135 cell size :
        i : 1
        j : 0.0692444 0.0692444 0.0893148 0.0893148 
        k : 0.084709 0.084709 0.087765 0.087765 
    Block 136 cell size :
        i : 1
        j : 0.0775803 0.0775803 0.0504097 0.0504097 
        k : 0.0567336 0.0567336 0.087765 0.087765 
    Block 137 cell size :
        i : 1
        j : 0.058114 0.058114 0.0589562 0.0589562 
        k : 0.052631 0.052631 0.0540384 0.0540384 
    Block 138 cell size :
        i : 1
        j : 0.0621327 0.0621327 0.0599533 0.0599533 
        k : 0.0540384 0.0540384 0.0594283 0.0594283 
    Block 139 cell size :
        i : 1
        j : 0.0590246 0.0590246 0.0635015 0.0635015 
        k : 0.0594283 0.0594283 0.0716378 0.0716378 
    Block 140 cell size :
        i : 1
        j : 0.075717 0.075717 0.101093 0.101093 
        k : 0.084934 0.084934 0.0798778 0.0798778 
    Block 141 cell size :
        i : 1
        j : 0.0477048 0.0477048 0.05131 0.05131 
        k : 0.0540905 0.0540905 0.052632 0.052632 
    Block 142 cell size :
        i : 1
        j : 0.0527398 0.0527398 0.052631 0.052631 
        k : 0.0505982 0.0505982 0.05131 0.05131 
    Block 143 cell size :
        i : 1
        j : 0.0539695 0.0539695 0.0559779 0.0559779 
        k : 0.052631 0.052631 0.051882 0.051882 
    Block 144 cell size :
        i : 1
        j : 0.0530583 0.0530583 0.0517756 0.0517756 
        k : 0.0496607 0.0496607 0.051433 0.051433 
    Block 145 cell size :
        i : 1
        j : 0.0493065 0.0493065 0.0509826 0.0509826 
        k : 0.0486544 0.0486544 0.0501071 0.0501071 
    Block 146 cell size :
        i : 1
        j : 0.0503567 0.0503567 0.052631 0.052631 
        k : 0.0518897 0.0518897 0.0504683 0.0504683 
    Block 147 cell size :
        i : 1
        j : 0.0554425 0.0554425 0.0759223 0.0759223 
        k : 0.0705053 0.0705053 0.0581805 0.0581805 
    Block 148 cell size :
        i : 1
        j : 0.041842 0.041842 0.0705053 0.0705053 
        k : 0.0494837 0.0494837 0.0505522 0.0505522 
    Block 149 cell size :
        i : 1
        j : 0.0487376 0.0487376 0.052631 0.052631 
        k : 0.0470527 0.0470527 0.0501589 0.0501589 
    Block 150 cell size :
        i : 1
        j : 0.0481902 0.0481902 0.052632 0.052632 
        k : 0.0505351 0.0505351 0.0470527 0.0470527 
    Block 151 cell size :
        i : 1
        j : 0.0541317 0.0541317 0.052632 0.052632 
        k : 0.0501589 0.0501589 0.0549802 0.0549802 
    Block 152 cell size :
        i : 1
        j : 0.0491358 0.0491358 0.052632 0.052632 
        k : 0.0509968 0.0509968 0.0505982 0.0505982 
    Block 153 cell size :
        i : 1
        j : 0.0302885 0.0302885 0.0762934 0.0762934 
        k : 0.0684856 0.0684856 0.052632 0.052632 
    Block 154 cell size :
        i : 1
        j : 0.0462578 0.0462578 0.052632 0.052632 
        k : 0.0302885 0.0302885 0.0417999 0.0417999 
    Block 155 cell size :
        i : 1
        j : 0.0573197 0.0573197 0.0602233 0.0602233 
        k : 0.052631 0.052631 0.0537781 0.0537781 
    Block 156 cell size :
        i : 1
        j : 0.0430945 0.0430945 0.0518827 0.0518827 
        k : 0.0522819 0.0522819 0.0578913 0.0578913 
    Block 157 cell size :
        i : 1
        j : 0.0391768 0.0391768 0.0518402 0.0518402 
        k : 0.0383397 0.0383397 0.0536152 0.0536152 
    Block 158 cell size :
        i : 1
        j : 0.0514245 0.0514245 0.0567685 0.0567685 
        k : 0.0460644 0.0460644 0.0522721 0.0522721 
    Block 159 cell size :
        i : 1
        j : 0.0575033 0.0575033 0.0598244 0.0598244 
        k : 0.0543051 0.0543051 0.0532022 0.0532022 
    Block 160 cell size :
        i : 1
        j : 0.052632 0.052632 0.0533227 0.0533227 
        k : 0.0607597 0.0607597 0.0615354 0.0615354 
    Block 161 cell size :
        i : 1
        j : 0.052631 0.052631 0.0534931 0.0534931 
        k : 0.0594214 0.0594214 0.0607597 0.0607597 
    Block 162 cell size :
        i : 1
        j : 0.0329094 0.0329094 0.0362621 0.0362621 
        k : 0.052632 0.052632 0.0512326 0.0512326 
    Block 163 cell size :
        i : 1
        j : 0.0728072 0.0728072 0.052631 0.052631 
        k : 0.0362621 0.0362621 0.0762934 0.0762934 
    Block 164 cell size :
        i : 1
        j : 0.0321381 0.0321381 0.0627488 0.0627488 
        k : 0.0635376 0.0635376 0.0512801 0.0512801 
    Block 165 cell size :
        i : 1
        j : 0.0329094 0.0329094 0.0412476 0.0412476 
        k : 0.0483848 0.0483848 0.052631 0.052631 
    Block 166 cell size :
        i : 1
        j : 0.0555056 0.0555056 0.0485823 0.0485823 
        k : 0.0301757 0.0301757 0.0627488 0.0627488 
    Block 167 cell size :
        i : 1
        j : 0.0486459 0.0486459 0.0775803 0.0775803 
        k : 0.0555056 0.0555056 0.0711002 0.0711002 
    Block 168 cell size :
        i : 1
        j : 0.07514 0.07514 0.0893148 0.0893148 
        k : 0.0957732 0.0957732 0.084709 0.084709 
    Block 169 cell size :
        i : 1
        j : 0.0589562 0.0589562 0.0594079 0.0594079 
        k : 0.052632 0.052632 0.0548698 0.0548698 
    Block 170 cell size :
        i : 1
        j : 0.0599533 0.0599533 0.0595583 0.0595583 
        k : 0.0548698 0.0548698 0.0593518 0.0593518 
    Block 171 cell size :
        i : 1
        j : 0.0593518 0.0593518 0.069423 0.069423 
        k : 0.0628189 0.0628189 0.0635015 0.0635015 
    Block 172 cell size :
        i : 1
        j : 0.075717 0.075717 0.0680624 0.0680624 
        k : 0.0716378 0.0716378 0.084616 0.084616 
    Block 173 cell size :
        i : 1
        j : 0.0559779 0.0559779 0.0581843 0.0581843 
        k : 0.052632 0.052632 0.0526163 0.0526163 
    Block 174 cell size :
        i : 1
        j : 0.0581843 0.0581843 0.0600665 0.0600665 
        k : 0.052631 0.052631 0.0532428 0.0532428 
    Block 175 cell size :
        i : 1
        j : 0.0530583 0.0530583 0.0558187 0.0558187 
        k : 0.051882 0.051882 0.0508588 0.0508588 
    Block 176 cell size :
        i : 1
        j : 0.0501901 0.0501901 0.0493065 0.0493065 
        k : 0.0450827 0.0450827 0.0496607 0.0496607 
    Block 177 cell size :
        i : 1
        j : 0.0462059 0.0462059 0.0503567 0.0503567 
        k : 0.0490978 0.0490978 0.0486544 0.0486544 
    Block 178 cell size :
        i : 1
        j : 0.052632 0.052632 0.051217 0.051217 
        k : 0.0518897 0.0518897 0.0547831 0.0547831 
    Block 179 cell size :
        i : 1
        j : 0.052632 0.052632 0.0505522 0.0505522 
        k : 0.0509968 0.0509968 0.0557227 0.0557227 
    Block 180 cell size :
        i : 1
        j : 0.052631 0.052631 0.0554425 0.0554425 
        k : 0.0557227 0.0557227 0.0549802 0.0549802 
    Block 181 cell size :
        i : 1
        j : 0.0615354 0.0615354 0.0620135 0.0620135 
        k : 0.0530661 0.0530661 0.052632 0.052632 
    Block 182 cell size :
        i : 1
        j : 0.0620135 0.0620135 0.0623761 0.0623761 
        k : 0.0529802 0.0529802 0.052631 0.052631 
    Block 183 cell size :
        i : 1
        j : 0.0625654 0.0625654 0.0623761 0.0623761 
        k : 0.052632 0.052632 0.0530623 0.0530623 
    Block 184 cell size :
        i : 1
        j : 0.0600665 0.0600665 0.0614128 0.0614128 
        k : 0.052632 0.052632 0.0535262 0.0535262 
    Block 185 cell size :
        i : 1
        j : 0.0602233 0.0602233 0.0615791 0.0615791 
        k : 0.052632 0.052632 0.0546007 0.0546007 
    Block 186 cell size :
        i : 1
        j : 0.052632 0.052632 0.054257 0.054257 
        k : 0.0616234 0.0616234 0.0615791 0.0615791 
    Block 187 cell size :
        i : 1
        j : 0.0578913 0.0578913 0.0619954 0.0619954 
        k : 0.0537781 0.0537781 0.0576902 0.0576902 
    Block 188 cell size :
        i : 1
        j : 0.0383397 0.0383397 0.0665553 0.0665553 
        k : 0.0509686 0.0509686 0.0460644 0.0460644 
    Block 189 cell size :
        i : 1
        j : 0.0509686 0.0509686 0.0430945 0.0430945 
        k : 0.0391768 0.0391768 0.0667661 0.0667661 
    Block 190 cell size :
        i : 1
        j : 0.0543051 0.0543051 0.0586371 0.0586371 
        k : 0.0567685 0.0567685 0.0610294 0.0610294 
    Block 191 cell size :
        i : 1
        j : 0.0615097 0.0615097 0.0611113 0.0611113 
        k : 0.0533227 0.0533227 0.0540218 0.0540218 
    Block 192 cell size :
        i : 1
        j : 0.0611113 0.0611113 0.0598244 0.0598244 
        k : 0.0534931 0.0534931 0.0549556 0.0549556 
    Block 193 cell size :
        i : 1
        j : 0.052631 0.052631 0.0536586 0.0536586 
        k : 0.0609551 0.0609551 0.0616234 0.0616234 
    Block 194 cell size :
        i : 1
        j : 0.052632 0.052632 0.0531003 0.0531003 
        k : 0.0597445 0.0597445 0.0609551 0.0609551 
    Block 195 cell size :
        i : 1
        j : 0.0412476 0.0412476 0.044713 0.044713 
        k : 0.0512801 0.0512801 0.052632 0.052632 
    Block 196 cell size :
        i : 1
        j : 0.052631 0.052631 0.0526454 0.0526454 
        k : 0.0582811 0.0582811 0.0597445 0.0597445 
    Block 197 cell size :
        i : 1
        j : 0.0485823 0.0485823 0.052632 0.052632 
        k : 0.0453162 0.0453162 0.044713 0.044713 
    Block 198 cell size :
        i : 1
        j : 0.0301757 0.0301757 0.0507589 0.0507589 
        k : 0.0486459 0.0486459 0.0541479 0.0541479 
    Block 199 cell size :
        i : 1
        j : 0.0660645 0.0660645 0.0957732 0.0957732 
        k : 0.0711002 0.0711002 0.0657069 0.0657069 
    Block 200 cell size :
        i : 1
        j : 0.0744384 0.0744384 0.07514 0.07514 
        k : 0.082736 0.082736 0.084709 0.084709 
    Block 201 cell size :
        i : 1
        j : 0.0594079 0.0594079 0.0605752 0.0605752 
        k : 0.052631 0.052631 0.053985 0.053985 
    Block 202 cell size :
        i : 1
        j : 0.0551748 0.0551748 0.0595583 0.0595583 
        k : 0.0543073 0.0543073 0.053985 0.053985 
    Block 203 cell size :
        i : 1
        j : 0.0616067 0.0616067 0.0628189 0.0628189 
        k : 0.0497757 0.0497757 0.0543073 0.0543073 
    Block 204 cell size :
        i : 1
        j : 0.069423 0.069423 0.084651 0.084651 
        k : 0.0695912 0.0695912 0.0680624 0.0680624 
    Block 205 cell size :
        i : 1
        j : 0.0558187 0.0558187 0.058559 0.058559 
        k : 0.0526163 0.0526163 0.0528607 0.0528607 
    Block 206 cell size :
        i : 1
        j : 0.058559 0.058559 0.0606025 0.0606025 
        k : 0.0532428 0.0532428 0.0543735 0.0543735 
    Block 207 cell size :
        i : 1
        j : 0.0484266 0.0484266 0.0508588 0.0508588 
        k : 0.0501901 0.0501901 0.056069 0.056069 
    Block 208 cell size :
        i : 1
        j : 0.0375399 0.0375399 0.0462059 0.0462059 
        k : 0.0369123 0.0369123 0.0450827 0.0450827 
    Block 209 cell size :
        i : 1
        j : 0.051217 0.051217 0.0487288 0.0487288 
        k : 0.0490978 0.0490978 0.0549802 0.0549802 
    Block 210 cell size :
        i : 1
        j : 0.052631 0.052631 0.0530739 0.0530739 
        k : 0.0547831 0.0547831 0.0573085 0.0573085 
    Block 211 cell size :
        i : 1
        j : 0.0614128 0.0614128 0.0622126 0.0622126 
        k : 0.052632 0.052632 0.0534865 0.0534865 
    Block 212 cell size :
        i : 1
        j : 0.0622126 0.0622126 0.0625654 0.0625654 
        k : 0.052631 0.052631 0.0532133 0.0532133 
    Block 213 cell size :
        i : 1
        j : 0.0617559 0.0617559 0.062253 0.062253 
        k : 0.0532038 0.0532038 0.0529802 0.0529802 
    Block 214 cell size :
        i : 1
        j : 0.0615097 0.0615097 0.0617559 0.0617559 
        k : 0.0532609 0.0532609 0.0530661 0.0530661 
    Block 215 cell size :
        i : 1
        j : 0.062253 0.062253 0.0626153 0.0626153 
        k : 0.0533817 0.0533817 0.0530623 0.0530623 
    Block 216 cell size :
        i : 1
        j : 0.0606025 0.0606025 0.0618866 0.0618866 
        k : 0.0535262 0.0535262 0.0548243 0.0548243 
    Block 217 cell size :
        i : 1
        j : 0.0546007 0.0546007 0.0579898 0.0579898 
        k : 0.0628596 0.0628596 0.0619954 0.0619954 
    Block 218 cell size :
        i : 1
        j : 0.054257 0.054257 0.055959 0.055959 
        k : 0.0621156 0.0621156 0.0628596 0.0628596 
    Block 219 cell size :
        i : 1
        j : 0.0667661 0.0667661 0.0658259 0.0658259 
        k : 0.0576902 0.0576902 0.0736779 0.0736779 
    Block 220 cell size :
        i : 1
        j : 0.0586371 0.0586371 0.0756636 0.0756636 
        k : 0.0665553 0.0665553 0.0625521 0.0625521 
    Block 221 cell size :
        i : 1
        j : 0.0608782 0.0608782 0.0607152 0.0607152 
        k : 0.0540218 0.0540218 0.0550413 0.0550413 
    Block 222 cell size :
        i : 1
        j : 0.0607152 0.0607152 0.0610294 0.0610294 
        k : 0.0549556 0.0549556 0.0572871 0.0572871 
    Block 223 cell size :
        i : 1
        j : 0.0536586 0.0536586 0.0546684 0.0546684 
        k : 0.061067 0.061067 0.0621156 0.0621156 
    Block 224 cell size :
        i : 1
        j : 0.0531003 0.0531003 0.0536323 0.0536323 
        k : 0.0597857 0.0597857 0.061067 0.061067 
    Block 225 cell size :
        i : 1
        j : 0.052632 0.052632 0.0519788 0.0519788 
        k : 0.0566783 0.0566783 0.0582811 0.0582811 
    Block 226 cell size :
        i : 1
        j : 0.0526454 0.0526454 0.0530025 0.0530025 
        k : 0.0583154 0.0583154 0.0597857 0.0597857 
    Block 227 cell size :
        i : 1
        j : 0.0511678 0.0511678 0.052632 0.052632 
        k : 0.0566783 0.0566783 0.0554047 0.0554047 
    Block 228 cell size :
        i : 1
        j : 0.052631 0.052631 0.0541479 0.0541479 
        k : 0.0453162 0.0453162 0.0490553 0.0490553 
    Block 229 cell size :
        i : 1
        j : 0.0566244 0.0566244 0.0660645 0.0660645 
        k : 0.0507589 0.0507589 0.0565878 0.0565878 
    Block 230 cell size :
        i : 1
        j : 0.066347 0.066347 0.0657069 0.0657069 
        k : 0.0699571 0.0699571 0.082736 0.082736 
    Block 231 cell size :
        i : 1
        j : 0.0744384 0.0744384 0.0821051 0.0821051 
        k : 0.084709 0.084709 0.0961193 0.0961193 
    Block 232 cell size :
        i : 1
        j : 0.0597642 0.0597642 0.052632 0.052632 
        k : 0.0605752 0.0605752 0.0700104 0.0700104 
    Block 233 cell size :
        i : 1
        j : 0.0477611 0.0477611 0.0551748 0.0551748 
        k : 0.0378747 0.0378747 0.0597642 0.0597642 
    Block 234 cell size :
        i : 1
        j : 0.0378747 0.0378747 0.063244 0.063244 
        k : 0.0405473 0.0405473 0.0616067 0.0616067 
    Block 235 cell size :
        i : 1
        j : 0.0497757 0.0497757 0.084687 0.084687 
        k : 0.0866796 0.0866796 0.0695912 0.0695912 
    Block 236 cell size :
        i : 1
        j : 0.056069 0.056069 0.059565 0.059565 
        k : 0.0528607 0.0528607 0.0557871 0.0557871 
    Block 237 cell size :
        i : 1
        j : 0.059565 0.059565 0.0614657 0.0614657 
        k : 0.0543735 0.0543735 0.0569379 0.0569379 
    Block 238 cell size :
        i : 1
        j : 0.0369123 0.0369123 0.0641484 0.0641484 
        k : 0.0474325 0.0474325 0.0487288 0.0487288 
    Block 239 cell size :
        i : 1
        j : 0.0474325 0.0474325 0.0484266 0.0484266 
        k : 0.0375399 0.0375399 0.0648277 0.0648277 
    Block 240 cell size :
        i : 1
        j : 0.052632 0.052632 0.056252 0.056252 
        k : 0.0547305 0.0547305 0.0700104 0.0700104 
    Block 241 cell size :
        i : 1
        j : 0.0530739 0.0530739 0.0552343 0.0552343 
        k : 0.0549802 0.0549802 0.0585184 0.0585184 
    Block 242 cell size :
        i : 1
        j : 0.052632 0.052632 0.054149 0.054149 
        k : 0.0573085 0.0573085 0.058712 0.058712 
    Block 243 cell size :
        i : 1
        j : 0.0618866 0.0618866 0.0625685 0.0625685 
        k : 0.0534865 0.0534865 0.0546863 0.0546863 
    Block 244 cell size :
        i : 1
        j : 0.0625685 0.0625685 0.0626153 0.0626153 
        k : 0.0532133 0.0532133 0.0539427 0.0539427 
    Block 245 cell size :
        i : 1
        j : 0.0608782 0.0608782 0.0612006 0.0612006 
        k : 0.0531562 0.0531562 0.0532609 0.0532609 
    Block 246 cell size :
        i : 1
        j : 0.0612006 0.0612006 0.0614864 0.0614864 
        k : 0.0527143 0.0527143 0.0532038 0.0532038 
    Block 247 cell size :
        i : 1
        j : 0.0614864 0.0614864 0.0621051 0.0621051 
        k : 0.0532406 0.0532406 0.0533817 0.0533817 
    Block 248 cell size :
        i : 1
        j : 0.0614657 0.0614657 0.0629612 0.0629612 
        k : 0.0548243 0.0548243 0.0567944 0.0567944 
    Block 249 cell size :
        i : 1
        j : 0.0579898 0.0579898 0.0622683 0.0622683 
        k : 0.0649587 0.0649587 0.0658259 0.0658259 
    Block 250 cell size :
        i : 1
        j : 0.055959 0.055959 0.057844 0.057844 
        k : 0.062912 0.062912 0.0649587 0.0649587 
    Block 251 cell size :
        i : 1
        j : 0.0646721 0.0646721 0.0736779 0.0736779 
        k : 0.0756636 0.0756636 0.068033 0.068033 
    Block 252 cell size :
        i : 1
        j : 0.0538865 0.0538865 0.0550413 0.0550413 
        k : 0.0563887 0.0563887 0.0588708 0.0588708 
    Block 253 cell size :
        i : 1
        j : 0.0588708 0.0588708 0.0625521 0.0625521 
        k : 0.0572871 0.0572871 0.0599508 0.0599508 
    Block 254 cell size :
        i : 1
        j : 0.0546684 0.0546684 0.0550198 0.0550198 
        k : 0.0605155 0.0605155 0.062912 0.062912 
    Block 255 cell size :
        i : 1
        j : 0.0536323 0.0536323 0.054128 0.054128 
        k : 0.0594242 0.0594242 0.0605155 0.0605155 
    Block 256 cell size :
        i : 1
        j : 0.0519788 0.0519788 0.0516416 0.0516416 
        k : 0.0562663 0.0562663 0.0583154 0.0583154 
    Block 257 cell size :
        i : 1
        j : 0.0530025 0.0530025 0.0543245 0.0543245 
        k : 0.0586313 0.0586313 0.0594242 0.0594242 
    Block 258 cell size :
        i : 1
        j : 0.0541545 0.0541545 0.0562663 0.0562663 
        k : 0.049481 0.049481 0.0511678 0.0511678 
    Block 259 cell size :
        i : 1
        j : 0.0551309 0.0551309 0.0554047 0.0554047 
        k : 0.0505808 0.0505808 0.052631 0.052631 
    Block 260 cell size :
        i : 1
        j : 0.052632 0.052632 0.0566244 0.0566244 
        k : 0.0490553 0.0490553 0.0527455 0.0527455 
    Block 261 cell size :
        i : 1
        j : 0.0577581 0.0577581 0.0565878 0.0565878 
        k : 0.0591328 0.0591328 0.0699571 0.0699571 
    Block 262 cell size :
        i : 1
        j : 0.0773176 0.0773176 0.066347 0.066347 
        k : 0.06638 0.06638 0.0961193 0.0961193 
    Block 263 cell size :
        i : 1
        j : 0.0695094 0.0695094 0.0821051 0.0821051 
        k : 0.0842291 0.0842291 0.08471 0.08471 
    Block 264 cell size :
        i : 1
        j : 0.0399347 0.0399347 0.0602424 0.0602424 
        k : 0.0368647 0.0368647 0.056252 0.056252 
    Block 265 cell size :
        i : 1
        j : 0.0405473 0.0405473 0.0602424 0.0602424 
        k : 0.0477611 0.0477611 0.0473249 0.0473249 
    Block 266 cell size :
        i : 1
        j : 0.041835 0.041835 0.0866796 0.0866796 
        k : 0.072209 0.072209 0.063244 0.063244 
    Block 267 cell size :
        i : 1
        j : 0.0395018 0.0395018 0.0490955 0.0490955 
        k : 0.0399347 0.0399347 0.0519711 0.0519711 
    Block 268 cell size :
        i : 1
        j : 0.0648277 0.0648277 0.0613253 0.0613253 
        k : 0.0557871 0.0557871 0.0693246 0.0693246 
    Block 269 cell size :
        i : 1
        j : 0.0613253 0.0613253 0.0621927 0.0621927 
        k : 0.0569379 0.0569379 0.0594789 0.0594789 
    Block 270 cell size :
        i : 1
        j : 0.0552343 0.0552343 0.0690405 0.0690405 
        k : 0.0641484 0.0641484 0.0601888 0.0601888 
    Block 271 cell size :
        i : 1
        j : 0.0490955 0.0490955 0.052631 0.052631 
        k : 0.0547305 0.0547305 0.0521447 0.0521447 
    Block 272 cell size :
        i : 1
        j : 0.052632 0.052632 0.0542422 0.0542422 
        k : 0.058712 0.058712 0.0592882 0.0592882 
    Block 273 cell size :
        i : 1
        j : 0.054149 0.054149 0.0568105 0.0568105 
        k : 0.0585184 0.0585184 0.0593567 0.0593567 
    Block 274 cell size :
        i : 1
        j : 0.0539427 0.0539427 0.0553288 0.0553288 
        k : 0.0621051 0.0621051 0.0632692 0.0632692 
    Block 275 cell size :
        i : 1
        j : 0.0629612 0.0629612 0.0632692 0.0632692 
        k : 0.0546863 0.0546863 0.0566099 0.0566099 
    Block 276 cell size :
        i : 1
        j : 0.051739 0.051739 0.0527143 0.0527143 
        k : 0.0569804 0.0569804 0.057737 0.057737 
    Block 277 cell size :
        i : 1
        j : 0.0563887 0.0563887 0.057737 0.057737 
        k : 0.0519741 0.0519741 0.0531562 0.0531562 
    Block 278 cell size :
        i : 1
        j : 0.0569804 0.0569804 0.0619748 0.0619748 
        k : 0.0540792 0.0540792 0.0532406 0.0532406 
    Block 279 cell size :
        i : 1
        j : 0.0567944 0.0567944 0.0596815 0.0596815 
        k : 0.064324 0.064324 0.0621927 0.0621927 
    Block 280 cell size :
        i : 1
        j : 0.0535274 0.0535274 0.0414873 0.0414873 
        k : 0.034774 0.034774 0.0591085 0.0591085 
    Block 281 cell size :
        i : 1
        j : 0.0607236 0.0607236 0.0622683 0.0622683 
        k : 0.068033 0.068033 0.0688787 0.0688787 
    Block 282 cell size :
        i : 1
        j : 0.061565 0.061565 0.0688787 0.0688787 
        k : 0.0602223 0.0602223 0.057844 0.057844 
    Block 283 cell size :
        i : 1
        j : 0.0520846 0.0520846 0.0538865 0.0538865 
        k : 0.0460978 0.0460978 0.0648136 0.0648136 
    Block 284 cell size :
        i : 1
        j : 0.0648136 0.0648136 0.0646721 0.0646721 
        k : 0.0599508 0.0599508 0.0628264 0.0628264 
    Block 285 cell size :
        i : 1
        j : 0.061565 0.061565 0.059208 0.059208 
        k : 0.0550198 0.0550198 0.0596722 0.0596722 
    Block 286 cell size :
        i : 1
        j : 0.0574115 0.0574115 0.059208 0.059208 
        k : 0.0532456 0.0532456 0.054128 0.054128 
    Block 287 cell size :
        i : 1
        j : 0.0516416 0.0516416 0.0533507 0.0533507 
        k : 0.0550881 0.0550881 0.0586313 0.0586313 
    Block 288 cell size :
        i : 1
        j : 0.0574115 0.0574115 0.0588563 0.0588563 
        k : 0.0543245 0.0543245 0.0559564 0.0559564 
    Block 289 cell size :
        i : 1
        j : 0.0499017 0.0499017 0.0550881 0.0550881 
        k : 0.0468509 0.0468509 0.049481 0.049481 
    Block 290 cell size :
        i : 1
        j : 0.0537684 0.0537684 0.0541545 0.0541545 
        k : 0.0480495 0.0480495 0.0505808 0.0505808 
    Block 291 cell size :
        i : 1
        j : 0.0561662 0.0561662 0.0551309 0.0551309 
        k : 0.0503318 0.0503318 0.052632 0.052632 
    Block 292 cell size :
        i : 1
        j : 0.0534962 0.0534962 0.0527455 0.0527455 
        k : 0.052631 0.052631 0.0591328 0.0591328 
    Block 293 cell size :
        i : 1
        j : 0.0549967 0.0549967 0.0577581 0.0577581 
        k : 0.0577385 0.0577385 0.06638 0.06638 
    Block 294 cell size :
        i : 1
        j : 0.0608443 0.0608443 0.0561388 0.0561388 
        k : 0.0332049 0.0332049 0.0773176 0.0773176 
    Block 295 cell size :
        i : 1
        j : 0.0592538 0.0592538 0.0842291 0.0842291 
        k : 0.0608443 0.0608443 0.0656378 0.0656378 
    Block 296 cell size :
        i : 1
        j : 0.0671833 0.0671833 0.0695094 0.0695094 
        k : 0.0781797 0.0781797 0.084709 0.084709 
    Block 297 cell size :
        i : 1
        j : 0.072209 0.072209 0.0762482 0.0762482 
        k : 0.060026 0.060026 0.084709 0.084709 
    Block 298 cell size :
        i : 1
        j : 0.0368647 0.0368647 0.0732322 0.0732322 
        k : 0.0395018 0.0395018 0.0705003 0.0705003 
    Block 299 cell size :
        i : 1
        j : 0.060026 0.060026 0.0473249 0.0473249 
        k : 0.041835 0.041835 0.0705003 0.0705003 
    Block 300 cell size :
        i : 1
        j : 0.0519711 0.0519711 0.0565708 0.0565708 
        k : 0.0531152 0.0531152 0.0586328 0.0586328 
    Block 301 cell size :
        i : 1
        j : 0.052632 0.052632 0.0531152 0.0531152 
        k : 0.0520416 0.0520416 0.0521447 0.0521447 
    Block 302 cell size :
        i : 1
        j : 0.059517 0.059517 0.0693246 0.0693246 
        k : 0.0690405 0.0690405 0.0602816 0.0602816 
    Block 303 cell size :
        i : 1
        j : 0.0594789 0.0594789 0.0633405 0.0633405 
        k : 0.0615882 0.0615882 0.0602816 0.0602816 
    Block 304 cell size :
        i : 1
        j : 0.0568105 0.0568105 0.0592934 0.0592934 
        k : 0.0601888 0.0601888 0.0602041 0.0602041 
    Block 305 cell size :
        i : 1
        j : 0.052631 0.052631 0.05395 0.05395 
        k : 0.0592882 0.0592882 0.0592787 0.0592787 
    Block 306 cell size :
        i : 1
        j : 0.0542422 0.0542422 0.0561808 0.0561808 
        k : 0.0593567 0.0593567 0.0598563 0.0598563 
    Block 307 cell size :
        i : 1
        j : 0.0566099 0.0566099 0.0608412 0.0608412 
        k : 0.0647806 0.0647806 0.064324 0.064324 
    Block 308 cell size :
        i : 1
        j : 0.0553288 0.0553288 0.057408 0.057408 
        k : 0.0619748 0.0619748 0.0647806 0.0647806 
    Block 309 cell size :
        i : 1
        j : 0.0637585 0.0637585 0.051739 0.051739 
        k : 0.0444307 0.0444307 0.0768996 0.0768996 
    Block 310 cell size :
        i : 1
        j : 0.0460978 0.0460978 0.0768996 0.0768996 
        k : 0.0567239 0.0567239 0.0519741 0.0519741 
    Block 311 cell size :
        i : 1
        j : 0.0444307 0.0444307 0.0609528 0.0609528 
        k : 0.0475771 0.0475771 0.0540792 0.0540792 
    Block 312 cell size :
        i : 1
        j : 0.054827 0.054827 0.0596815 0.0596815 
        k : 0.0615882 0.0615882 0.0693552 0.0693552 
    Block 313 cell size :
        i : 1
        j : 0.0647097 0.0647097 0.107983 0.107983 
        k : 0.0538922 0.0538922 0.088039 0.088039 
    Block 314 cell size :
        i : 1
        j : 0.034774 0.034774 0.0445052 0.0445052 
        k : 0.0429739 0.0429739 0.0561298 0.0561298 
    Block 315 cell size :
        i : 1
        j : 0.0429739 0.0429739 0.0734232 0.0734232 
        k : 0.0535274 0.0535274 0.0552586 0.0552586 
    Block 316 cell size :
        i : 1
        j : 0.0414873 0.0414873 0.0456549 0.0456549 
        k : 0.0436963 0.0436963 0.0564304 0.0564304 
    Block 317 cell size :
        i : 1
        j : 0.0591085 0.0591085 0.0765285 0.0765285 
        k : 0.0392171 0.0392171 0.107983 0.107983 
    Block 318 cell size :
        i : 1
        j : 0.029272 0.029272 0.0456549 0.0456549 
        k : 0.0312305 0.0312305 0.0393639 0.0393639 
    Block 319 cell size :
        i : 1
        j : 0.0567239 0.0567239 0.0913186 0.0913186 
        k : 0.0520846 0.0520846 0.0960115 0.0960115 
    Block 320 cell size :
        i : 1
        j : 0.0913186 0.0913186 0.0607236 0.0607236 
        k : 0.0628264 0.0628264 0.095063 0.095063 
    Block 321 cell size :
        i : 1
        j : 0.0481557 0.0481557 0.095063 0.095063 
        k : 0.0736907 0.0736907 0.0602223 0.0602223 
    Block 322 cell size :
        i : 1
        j : 0.0487651 0.0487651 0.0596722 0.0596722 
        k : 0.0481557 0.0481557 0.067498 0.067498 
    Block 323 cell size :
        i : 1
        j : 0.05443 0.05443 0.067498 0.067498 
        k : 0.0572314 0.0572314 0.0532456 0.0532456 
    Block 324 cell size :
        i : 1
        j : 0.0533117 0.0533117 0.0559564 0.0559564 
        k : 0.05443 0.05443 0.0572212 0.0572212 
    Block 325 cell size :
        i : 1
        j : 0.0533507 0.0533507 0.0650386 0.0650386 
        k : 0.0618151 0.0618151 0.0588563 0.0588563 
    Block 326 cell size :
        i : 1
        j : 0.036876 0.036876 0.0618151 0.0618151 
        k : 0.046479 0.046479 0.0468509 0.0468509 
    Block 327 cell size :
        i : 1
        j : 0.0436545 0.0436545 0.0480495 0.0480495 
        k : 0.0499017 0.0499017 0.0500958 0.0500958 
    Block 328 cell size :
        i : 1
        j : 0.0547276 0.0547276 0.0537684 0.0537684 
        k : 0.0481652 0.0481652 0.0503318 0.0503318 
    Block 329 cell size :
        i : 1
        j : 0.0332049 0.0332049 0.0512509 0.0512509 
        k : 0.0592538 0.0592538 0.0479713 0.0479713 
    Block 330 cell size :
        i : 1
        j : 0.0561662 0.0561662 0.0586313 0.0586313 
        k : 0.052631 0.052631 0.0500427 0.0500427 
    Block 331 cell size :
        i : 1
        j : 0.0509045 0.0509045 0.0534962 0.0534962 
        k : 0.052632 0.052632 0.0577385 0.0577385 
    Block 332 cell size :
        i : 1
        j : 0.0467221 0.0467221 0.0549967 0.0549967 
        k : 0.0538708 0.0538708 0.0561388 0.0561388 
    Block 333 cell size :
        i : 1
        j : 0.0482989 0.0482989 0.0656378 0.0656378 
        k : 0.072682 0.072682 0.0781797 0.0781797 
    Block 334 cell size :
        i : 1
        j : 0.0798067 0.0798067 0.084709 0.084709 
        k : 0.0671833 0.0671833 0.0773952 0.0773952 
    Block 335 cell size :
        i : 1
        j : 0.0555685 0.0555685 0.0482989 0.0482989 
        k : 0.0477476 0.0477476 0.0798067 0.0798067 
    Block 336 cell size :
        i : 1
        j : 0.0773952 0.0773952 0.0710855 0.0710855 
        k : 0.084709 0.084709 0.0941975 0.0941975 
    Block 337 cell size :
        i : 1
        j : 0.0762482 0.0762482 0.0752235 0.0752235 
        k : 0.0795742 0.0795742 0.084709 0.084709 
    Block 338 cell size :
        i : 1
        j : 0.0732322 0.0732322 0.0664447 0.0664447 
        k : 0.0586328 0.0586328 0.0795742 0.0795742 
    Block 339 cell size :
        i : 1
        j : 0.0556307 0.0556307 0.0652664 0.0652664 
        k : 0.0503018 0.0503018 0.0565708 0.0565708 
    Block 340 cell size :
        i : 1
        j : 0.052631 0.052631 0.0556307 0.0556307 
        k : 0.0529368 0.0529368 0.0520416 0.0520416 
    Block 341 cell size :
        i : 1
        j : 0.052632 0.052632 0.0536835 0.0536835 
        k : 0.0592787 0.0592787 0.0590302 0.0590302 
    Block 342 cell size :
        i : 1
        j : 0.058545 0.058545 0.059517 0.059517 
        k : 0.0592934 0.0592934 0.0593243 0.0593243 
    Block 343 cell size :
        i : 1
        j : 0.0464946 0.0464946 0.0593243 0.0593243 
        k : 0.0449804 0.0449804 0.0633405 0.0633405 
    Block 344 cell size :
        i : 1
        j : 0.0561808 0.0561808 0.058503 0.058503 
        k : 0.0602041 0.0602041 0.0612792 0.0612792 
    Block 345 cell size :
        i : 1
        j : 0.05395 0.05395 0.0553066 0.0553066 
        k : 0.0598563 0.0598563 0.0595156 0.0595156 
    Block 346 cell size :
        i : 1
        j : 0.0608412 0.0608412 0.072542 0.072542 
        k : 0.0734383 0.0734383 0.0693552 0.0693552 
    Block 347 cell size :
        i : 1
        j : 0.057408 0.057408 0.0689422 0.0689422 
        k : 0.0609528 0.0609528 0.0734383 0.0734383 
    Block 348 cell size :
        i : 1
        j : 0.0475771 0.0475771 0.0791623 0.0791623 
        k : 0.0637585 0.0637585 0.0687713 0.0687713 
    Block 349 cell size :
        i : 1
        j : 0.0636041 0.0636041 0.054827 0.054827 
        k : 0.0464946 0.0464946 0.0813044 0.0813044 
    Block 350 cell size :
        i : 1
        j : 0.102643 0.102643 0.097042 0.097042 
        k : 0.095879 0.095879 0.108839 0.108839 
    Block 351 cell size :
        i : 1
        j : 0.0826368 0.0826368 0.091876 0.091876 
        k : 0.0647097 0.0647097 0.102643 0.102643 
    Block 352 cell size :
        i : 1
        j : 0.0538922 0.0538922 0.0864202 0.0864202 
        k : 0.0826368 0.0826368 0.0734232 0.0734232 
    Block 353 cell size :
        i : 1
        j : 0.0437875 0.0437875 0.0561298 0.0561298 
        k : 0.0436963 0.0436963 0.0453444 0.0453444 
    Block 354 cell size :
        i : 1
        j : 0.0558774 0.0558774 0.0583662 0.0583662 
        k : 0.0445052 0.0445052 0.0452519 0.0452519 
    Block 355 cell size :
        i : 1
        j : 0.0583662 0.0583662 0.0725051 0.0725051 
        k : 0.0552586 0.0552586 0.0584022 0.0584022 
    Block 356 cell size :
        i : 1
        j : 0.0694036 0.0694036 0.0710855 0.0710855 
        k : 0.0795265 0.0795265 0.084709 0.084709 
    Block 357 cell size :
        i : 1
        j : 0.0693517 0.0693517 0.0795265 0.0795265 
        k : 0.065014 0.065014 0.0648708 0.0648708 
    Block 358 cell size :
        i : 1
        j : 0.0586961 0.0586961 0.0595598 0.0595598 
        k : 0.0593266 0.0593266 0.0690407 0.0690407 
    Block 359 cell size :
        i : 1
        j : 0.0765285 0.0765285 0.0780751 0.0780751 
        k : 0.0615414 0.0615414 0.084934 0.084934 
    Block 360 cell size :
        i : 1
        j : 0.0312305 0.0312305 0.0519672 0.0519672 
        k : 0.0315127 0.0315127 0.0507844 0.0507844 
    Block 361 cell size :
        i : 1
        j : 0.0615414 0.0615414 0.0564304 0.0564304 
        k : 0.0392171 0.0392171 0.0507844 0.0507844 
    Block 362 cell size :
        i : 1
        j : 0.0315127 0.0315127 0.0391531 0.0391531 
        k : 0.029272 0.029272 0.0417787 0.0417787 
    Block 363 cell size :
        i : 1
        j : 0.0393639 0.0393639 0.0460824 0.0460824 
        k : 0.0437875 0.0437875 0.0397693 0.0397693 
    Block 364 cell size :
        i : 1
        j : 0.0834605 0.0834605 0.0791623 0.0791623 
        k : 0.0623443 0.0623443 0.0960115 0.0960115 
    Block 365 cell size :
        i : 1
        j : 0.0487651 0.0487651 0.109382 0.109382 
        k : 0.0630813 0.0630813 0.0736907 0.0736907 
    Block 366 cell size :
        i : 1
        j : 0.0420045 0.0420045 0.0630813 0.0630813 
        k : 0.0594134 0.0594134 0.0572314 0.0572314 
    Block 367 cell size :
        i : 1
        j : 0.0421043 0.0421043 0.0533117 0.0533117 
        k : 0.0420045 0.0420045 0.0585628 0.0585628 
    Block 368 cell size :
        i : 1
        j : 0.0572212 0.0572212 0.0685378 0.0685378 
        k : 0.0650386 0.0650386 0.0569654 0.0569654 
    Block 369 cell size :
        i : 1
        j : 0.0358515 0.0358515 0.0512509 0.0512509 
        k : 0.0349893 0.0349893 0.0530231 0.0530231 
    Block 370 cell size :
        i : 1
        j : 0.046479 0.046479 0.0478152 0.0478152 
        k : 0.0354847 0.0354847 0.0626237 0.0626237 
    Block 371 cell size :
        i : 1
        j : 0.0354847 0.0354847 0.0436545 0.0436545 
        k : 0.036876 0.036876 0.0451595 0.0451595 
    Block 372 cell size :
        i : 1
        j : 0.0464135 0.0464135 0.0481652 0.0481652 
        k : 0.0500958 0.0500958 0.0517926 0.0517926 
    Block 373 cell size :
        i : 1
        j : 0.048051 0.048051 0.0500427 0.0500427 
        k : 0.0547276 0.0547276 0.0570017 0.0570017 
    Block 374 cell size :
        i : 1
        j : 0.0388724 0.0388724 0.0467221 0.0467221 
        k : 0.049072 0.049072 0.0479713 0.0479713 
    Block 375 cell size :
        i : 1
        j : 0.0586313 0.0586313 0.0616799 0.0616799 
        k : 0.052632 0.052632 0.0499907 0.0499907 
    Block 376 cell size :
        i : 1
        j : 0.0454051 0.0454051 0.0509045 0.0509045 
        k : 0.052631 0.052631 0.0538708 0.0538708 
    Block 377 cell size :
        i : 1
        j : 0.0477476 0.0477476 0.051937 0.051937 
        k : 0.0383663 0.0383663 0.0522415 0.0522415 
    Block 378 cell size :
        i : 1
        j : 0.0496068 0.0496068 0.072682 0.072682 
        k : 0.0530231 0.0530231 0.0522415 0.0522415 
    Block 379 cell size :
        i : 1
        j : 0.0656335 0.0656335 0.0941975 0.0941975 
        k : 0.0760352 0.0760352 0.065014 0.065014 
    Block 380 cell size :
        i : 1
        j : 0.0383663 0.0383663 0.0760352 0.0760352 
        k : 0.0555685 0.0555685 0.0559821 0.0559821 
    Block 381 cell size :
        i : 1
        j : 0.0598541 0.0598541 0.0693517 0.0693517 
        k : 0.0589636 0.0589636 0.0595598 0.0595598 
    Block 382 cell size :
        i : 1
        j : 0.0549161 0.0549161 0.0564927 0.0564927 
        k : 0.052632 0.052632 0.0593266 0.0593266 
    Block 383 cell size :
        i : 1
        j : 0.0771328 0.0771328 0.084709 0.084709 
        k : 0.0793544 0.0793544 0.0752235 0.0752235 
    Block 384 cell size :
        i : 1
        j : 0.0664447 0.0664447 0.0708543 0.0708543 
        k : 0.0652664 0.0652664 0.0771328 0.0771328 
    Block 385 cell size :
        i : 1
        j : 0.0416279 0.0416279 0.0724342 0.0724342 
        k : 0.0549786 0.0549786 0.0503018 0.0503018 
    Block 386 cell size :
        i : 1
        j : 0.038853 0.038853 0.0529368 0.0529368 
        k : 0.0416279 0.0416279 0.052632 0.052632 
    Block 387 cell size :
        i : 1
        j : 0.0589174 0.0589174 0.0590302 0.0590302 
        k : 0.052631 0.052631 0.0537831 0.0537831 
    Block 388 cell size :
        i : 1
        j : 0.0543475 0.0543475 0.0536835 0.0536835 
        k : 0.0586699 0.0586699 0.0595156 0.0595156 
    Block 389 cell size :
        i : 1
        j : 0.058545 0.058545 0.0638719 0.0638719 
        k : 0.056099 0.056099 0.058503 0.058503 
    Block 390 cell size :
        i : 1
        j : 0.0449804 0.0449804 0.0805963 0.0805963 
        k : 0.0636041 0.0636041 0.056099 0.056099 
    Block 391 cell size :
        i : 1
        j : 0.0553066 0.0553066 0.0586935 0.0586935 
        k : 0.0612792 0.0612792 0.0601581 0.0601581 
    Block 392 cell size :
        i : 1
        j : 0.0813044 0.0813044 0.112309 0.112309 
        k : 0.072542 0.072542 0.121349 0.121349 
    Block 393 cell size :
        i : 1
        j : 0.0689422 0.0689422 0.111346 0.111346 
        k : 0.0687713 0.0687713 0.112309 0.112309 
    Block 394 cell size :
        i : 1
        j : 0.0827554 0.0827554 0.108839 0.108839 
        k : 0.101997 0.101997 0.092719 0.092719 
    Block 395 cell size :
        i : 1
        j : 0.0725051 0.0725051 0.101997 0.101997 
        k : 0.0864202 0.0864202 0.0714991 0.0714991 
    Block 396 cell size :
        i : 1
        j : 0.052632 0.052632 0.0453444 0.0453444 
        k : 0.0471675 0.0471675 0.0558774 0.0558774 
    Block 397 cell size :
        i : 1
        j : 0.052632 0.052632 0.0618629 0.0618629 
        k : 0.0452519 0.0452519 0.0530114 0.0530114 
    Block 398 cell size :
        i : 1
        j : 0.0618629 0.0618629 0.0738167 0.0738167 
        k : 0.0584022 0.0584022 0.0589353 0.0589353 
    Block 399 cell size :
        i : 1
        j : 0.0667114 0.0667114 0.0648708 0.0648708 
        k : 0.0690407 0.0690407 0.0799582 0.0799582 
    Block 400 cell size :
        i : 1
        j : 0.073916 0.073916 0.0694036 0.0694036 
        k : 0.0799582 0.0799582 0.084709 0.084709 
    Block 401 cell size :
        i : 1
        j : 0.0611653 0.0611653 0.0586961 0.0586961 
        k : 0.055985 0.055985 0.0668187 0.0668187 
    Block 402 cell size :
        i : 1
        j : 0.0661594 0.0661594 0.0654002 0.0654002 
        k : 0.050223 0.050223 0.052631 0.052631 
    Block 403 cell size :
        i : 1
        j : 0.0505659 0.0505659 0.0549161 0.0549161 
        k : 0.052631 0.052631 0.055985 0.055985 
    Block 404 cell size :
        i : 1
        j : 0.0291362 0.0291362 0.0808386 0.0808386 
        k : 0.0536235 0.0536235 0.0519672 0.0519672 
    Block 405 cell size :
        i : 1
        j : 0.0780751 0.0780751 0.0790206 0.0790206 
        k : 0.0808386 0.0808386 0.084616 0.084616 
    Block 406 cell size :
        i : 1
        j : 0.0394226 0.0394226 0.0417787 0.0417787 
        k : 0.0291362 0.0291362 0.0434035 0.0434035 
    Block 407 cell size :
        i : 1
        j : 0.0391531 0.0391531 0.0467884 0.0467884 
        k : 0.0397693 0.0397693 0.0411333 0.0411333 
    Block 408 cell size :
        i : 1
        j : 0.0460824 0.0460824 0.052631 0.052631 
        k : 0.0471675 0.0471675 0.0434961 0.0434961 
    Block 409 cell size :
        i : 1
        j : 0.0623443 0.0623443 0.115272 0.115272 
        k : 0.0654156 0.0654156 0.111346 0.111346 
    Block 410 cell size :
        i : 1
        j : 0.0654156 0.0654156 0.109382 0.109382 
        k : 0.0834605 0.0834605 0.0864165 0.0864165 
    Block 411 cell size :
        i : 1
        j : 0.0594134 0.0594134 0.0519491 0.0519491 
        k : 0.0421043 0.0421043 0.0735699 0.0735699 
    Block 412 cell size :
        i : 1
        j : 0.0585628 0.0585628 0.0577354 0.0577354 
        k : 0.0569654 0.0569654 0.0588034 0.0588034 
    Block 413 cell size :
        i : 1
        j : 0.0626237 0.0626237 0.0582485 0.0582485 
        k : 0.0545805 0.0545805 0.0685378 0.0685378 
    Block 414 cell size :
        i : 1
        j : 0.0349893 0.0349893 0.0430024 0.0430024 
        k : 0.0257398 0.0257398 0.0388724 0.0388724 
    Block 415 cell size :
        i : 1
        j : 0.0257398 0.0257398 0.0381287 0.0381287 
        k : 0.0358515 0.0358515 0.0472489 0.0472489 
    Block 416 cell size :
        i : 1
        j : 0.0478152 0.0478152 0.049756 0.049756 
        k : 0.0472226 0.0472226 0.0530643 0.0530643 
    Block 417 cell size :
        i : 1
        j : 0.0472226 0.0472226 0.0464135 0.0464135 
        k : 0.0451595 0.0451595 0.0496585 0.0496585 
    Block 418 cell size :
        i : 1
        j : 0.0480072 0.0480072 0.048051 0.048051 
        k : 0.0517926 0.0517926 0.0529059 0.0529059 
    Block 419 cell size :
        i : 1
        j : 0.0454737 0.0454737 0.0499907 0.0499907 
        k : 0.0570017 0.0570017 0.0648781 0.0648781 
    Block 420 cell size :
        i : 1
        j : 0.0387125 0.0387125 0.0454051 0.0454051 
        k : 0.052632 0.052632 0.049072 0.049072 
    Block 421 cell size :
        i : 1
        j : 0.0616799 0.0616799 0.0630931 0.0630931 
        k : 0.052631 0.052631 0.0510637 0.0510637 
    Block 422 cell size :
        i : 1
        j : 0.0523167 0.0523167 0.051937 0.051937 
        k : 0.0435385 0.0435385 0.0478712 0.0478712 
    Block 423 cell size :
        i : 1
        j : 0.0489859 0.0489859 0.0496068 0.0496068 
        k : 0.0381287 0.0381287 0.0435385 0.0435385 
    Block 424 cell size :
        i : 1
        j : 0.0546273 0.0546273 0.0559821 0.0559821 
        k : 0.0478712 0.0478712 0.0554948 0.0554948 
    Block 425 cell size :
        i : 1
        j : 0.0580177 0.0580177 0.0656335 0.0656335 
        k : 0.0554948 0.0554948 0.0589636 0.0589636 
    Block 426 cell size :
        i : 1
        j : 0.052632 0.052632 0.0598541 0.0598541 
        k : 0.0558414 0.0558414 0.0564927 0.0564927 
    Block 427 cell size :
        i : 1
        j : 0.0654002 0.0654002 0.0648738 0.0648738 
        k : 0.050767 0.050767 0.052632 0.052632 
    Block 428 cell size :
        i : 1
        j : 0.084709 0.084709 0.0813192 0.0813192 
        k : 0.0793544 0.0793544 0.0912145 0.0912145 
    Block 429 cell size :
        i : 1
        j : 0.0708543 0.0708543 0.0876596 0.0876596 
        k : 0.0724342 0.0724342 0.0813192 0.0813192 
    Block 430 cell size :
        i : 1
        j : 0.0533863 0.0533863 0.0543475 0.0543475 
        k : 0.0562478 0.0562478 0.0601581 0.0601581 
    Block 431 cell size :
        i : 1
        j : 0.0775906 0.0775906 0.0661166 0.0661166 
        k : 0.052631 0.052631 0.0756564 0.0756564 
    Block 432 cell size :
        i : 1
        j : 0.0549786 0.0549786 0.052632 0.052632 
        k : 0.038853 0.038853 0.0775906 0.0775906 
    Block 433 cell size :
        i : 1
        j : 0.0587285 0.0587285 0.0589174 0.0589174 
        k : 0.052632 0.052632 0.0541485 0.0541485 
    Block 434 cell size :
        i : 1
        j : 0.0537831 0.0537831 0.054388 0.054388 
        k : 0.0586699 0.0586699 0.0588402 0.0588402 
    Block 435 cell size :
        i : 1
        j : 0.0420764 0.0420764 0.0661166 0.0661166 
        k : 0.051439 0.051439 0.052632 0.052632 
    Block 436 cell size :
        i : 1
        j : 0.0553204 0.0553204 0.0533863 0.0533863 
        k : 0.0409718 0.0409718 0.0705301 0.0705301 
    Block 437 cell size :
        i : 1
        j : 0.0705301 0.0705301 0.0638719 0.0638719 
        k : 0.0586935 0.0586935 0.072743 0.072743 
    Block 438 cell size :
        i : 1
        j : 0.0681261 0.0681261 0.072743 0.072743 
        k : 0.065551 0.065551 0.0805963 0.0805963 
    Block 439 cell size :
        i : 1
        j : 0.0602868 0.0602868 0.121349 0.121349 
        k : 0.0681261 0.0681261 0.102859 0.102859 
    Block 440 cell size :
        i : 1
        j : 0.095879 0.095879 0.111184 0.111184 
        k : 0.102486 0.102486 0.097042 0.097042 
    Block 441 cell size :
        i : 1
        j : 0.08859 0.08859 0.0847248 0.0847248 
        k : 0.0723674 0.0723674 0.0827554 0.0827554 
    Block 442 cell size :
        i : 1
        j : 0.0738167 0.0738167 0.0847248 0.0847248 
        k : 0.0714991 0.0714991 0.0668787 0.0668787 
    Block 443 cell size :
        i : 1
        j : 0.052632 0.052632 0.0551747 0.0551747 
        k : 0.0484826 0.0484826 0.052632 0.052632 
    Block 444 cell size :
        i : 1
        j : 0.0550297 0.0550297 0.0530114 0.0530114 
        k : 0.052631 0.052631 0.0633522 0.0633522 
    Block 445 cell size :
        i : 1
        j : 0.0601994 0.0601994 0.0589353 0.0589353 
        k : 0.0633522 0.0633522 0.0750763 0.0750763 
    Block 446 cell size :
        i : 1
        j : 0.0660263 0.0660263 0.0652327 0.0652327 
        k : 0.047586 0.047586 0.050223 0.050223 
    Block 447 cell size :
        i : 1
        j : 0.073916 0.073916 0.0885936 0.0885936 
        k : 0.084709 0.084709 0.092999 0.092999 
    Block 448 cell size :
        i : 1
        j : 0.0691869 0.0691869 0.0885936 0.0885936 
        k : 0.089319 0.089319 0.084709 0.084709 
    Block 449 cell size :
        i : 1
        j : 0.0685425 0.0685425 0.0667114 0.0667114 
        k : 0.0668187 0.0668187 0.092999 0.092999 
    Block 450 cell size :
        i : 1
        j : 0.0451175 0.0451175 0.0575936 0.0575936 
        k : 0.0362618 0.0362618 0.0611653 0.0611653 
    Block 451 cell size :
        i : 1
        j : 0.0693627 0.0693627 0.0790206 0.0790206 
        k : 0.084651 0.084651 0.089926 0.089926 
    Block 452 cell size :
        i : 1
        j : 0.0693627 0.0693627 0.0691869 0.0691869 
        k : 0.0746491 0.0746491 0.084687 0.084687 
    Block 453 cell size :
        i : 1
        j : 0.0671653 0.0671653 0.0661594 0.0661594 
        k : 0.049876 0.049876 0.052632 0.052632 
    Block 454 cell size :
        i : 1
        j : 0.0458594 0.0458594 0.0505659 0.0505659 
        k : 0.052632 0.052632 0.0575936 0.0575936 
    Block 455 cell size :
        i : 1
        j : 0.0536235 0.0536235 0.0521665 0.0521665 
        k : 0.0394226 0.0394226 0.0769626 0.0769626 
    Block 456 cell size :
        i : 1
        j : 0.0434035 0.0434035 0.0492382 0.0492382 
        k : 0.0411333 0.0411333 0.0464915 0.0464915 
    Block 457 cell size :
        i : 1
        j : 0.0467884 0.0467884 0.052632 0.052632 
        k : 0.0434961 0.0434961 0.0441199 0.0441199 
    Block 458 cell size :
        i : 1
        j : 0.0477522 0.0477522 0.052631 0.052631 
        k : 0.0586702 0.0586702 0.0551747 0.0551747 
    Block 459 cell size :
        i : 1
        j : 0.0764349 0.0764349 0.115272 0.115272 
        k : 0.1158 0.1158 0.0814635 0.0814635 
    Block 460 cell size :
        i : 1
        j : 0.0735699 0.0735699 0.0814635 0.0814635 
        k : 0.0715482 0.0715482 0.0864165 0.0864165 
    Block 461 cell size :
        i : 1
        j : 0.0519491 0.0519491 0.0585152 0.0585152 
        k : 0.0588034 0.0588034 0.0661397 0.0661397 
    Block 462 cell size :
        i : 1
        j : 0.0582485 0.0582485 0.0594004 0.0594004 
        k : 0.0557044 0.0557044 0.0577354 0.0577354 
    Block 463 cell size :
        i : 1
        j : 0.0530643 0.0530643 0.0568065 0.0568065 
        k : 0.0514992 0.0514992 0.0545805 0.0545805 
    Block 464 cell size :
        i : 1
        j : 0.0430024 0.0430024 0.052632 0.052632 
        k : 0.0304221 0.0304221 0.0387125 0.0387125 
    Block 465 cell size :
        i : 1
        j : 0.0304221 0.0304221 0.0377756 0.0377756 
        k : 0.0472489 0.0472489 0.052631 0.052631 
    Block 466 cell size :
        i : 1
        j : 0.0497789 0.0497789 0.0528042 0.0528042 
        k : 0.0502082 0.0502082 0.049756 0.049756 
    Block 467 cell size :
        i : 1
        j : 0.0480072 0.0480072 0.0497789 0.0497789 
        k : 0.0505809 0.0505809 0.0496585 0.0496585 
    Block 468 cell size :
        i : 1
        j : 0.0454737 0.0454737 0.0480396 0.0480396 
        k : 0.05 0.05 0.0529059 0.0529059 
    Block 469 cell size :
        i : 1
        j : 0.0637023 0.0637023 0.0648781 0.0648781 
        k : 0.051108 0.051108 0.0510637 0.0510637 
    Block 470 cell size :
        i : 1
        j : 0.063472 0.063472 0.0630931 0.0630931 
        k : 0.0517135 0.0517135 0.052632 0.052632 
    Block 471 cell size :
        i : 1
        j : 0.052631 0.052631 0.0523167 0.0523167 
        k : 0.0431943 0.0431943 0.0482792 0.0482792 
    Block 472 cell size :
        i : 1
        j : 0.052632 0.052632 0.0489859 0.0489859 
        k : 0.0377756 0.0377756 0.0431943 0.0431943 
    Block 473 cell size :
        i : 1
        j : 0.052632 0.052632 0.0546273 0.0546273 
        k : 0.0482792 0.0482792 0.0529364 0.0529364 
    Block 474 cell size :
        i : 1
        j : 0.052631 0.052631 0.0580177 0.0580177 
        k : 0.0529364 0.0529364 0.0558414 0.0558414 
    Block 475 cell size :
        i : 1
        j : 0.0648738 0.0648738 0.0645481 0.0645481 
        k : 0.051378 0.051378 0.052632 0.052632 
    Block 476 cell size :
        i : 1
        j : 0.0652327 0.0652327 0.0646832 0.0646832 
        k : 0.048741 0.048741 0.050767 0.050767 
    Block 477 cell size :
        i : 1
        j : 0.084709 0.084709 0.0963699 0.0963699 
        k : 0.0912145 0.0912145 0.112407 0.112407 
    Block 478 cell size :
        i : 1
        j : 0.051439 0.051439 0.0779419 0.0779419 
        k : 0.0436085 0.0436085 0.0837321 0.0837321 
    Block 479 cell size :
        i : 1
        j : 0.0756564 0.0756564 0.0963699 0.0963699 
        k : 0.0837321 0.0837321 0.0876596 0.0876596 
    Block 480 cell size :
        i : 1
        j : 0.0409718 0.0409718 0.0559065 0.0559065 
        k : 0.0447774 0.0447774 0.0517741 0.0517741 
    Block 481 cell size :
        i : 1
        j : 0.0562478 0.0562478 0.057863 0.057863 
        k : 0.0517741 0.0517741 0.054388 0.054388 
    Block 482 cell size :
        i : 1
        j : 0.0580796 0.0580796 0.0587285 0.0587285 
        k : 0.052632 0.052632 0.0539517 0.0539517 
    Block 483 cell size :
        i : 1
        j : 0.0583525 0.0583525 0.0580796 0.0580796 
        k : 0.052631 0.052631 0.0539243 0.0539243 
    Block 484 cell size :
        i : 1
        j : 0.0595349 0.0595349 0.0588402 0.0588402 
        k : 0.0541485 0.0541485 0.0564246 0.0564246 
    Block 485 cell size :
        i : 1
        j : 0.0436085 0.0436085 0.052631 0.052631 
        k : 0.0420764 0.0420764 0.0719293 0.0719293 
    Block 486 cell size :
        i : 1
        j : 0.0649957 0.0649957 0.0583525 0.0583525 
        k : 0.052632 0.052632 0.0615327 0.0615327 
    Block 487 cell size :
        i : 1
        j : 0.0795272 0.0795272 0.1158 0.1158 
        k : 0.102859 0.102859 0.0751769 0.0751769 
    Block 488 cell size :
        i : 1
        j : 0.0597438 0.0597438 0.0751769 0.0751769 
        k : 0.0661814 0.0661814 0.0762119 0.0762119 
    Block 489 cell size :
        i : 1
        j : 0.0447774 0.0447774 0.0737435 0.0737435 
        k : 0.0553204 0.0553204 0.0614048 0.0614048 
    Block 490 cell size :
        i : 1
        j : 0.065551 0.065551 0.0825093 0.0825093 
        k : 0.0602868 0.0602868 0.0737435 0.0737435 
    Block 491 cell size :
        i : 1
        j : 0.0934542 0.0934542 0.092719 0.092719 
        k : 0.0848817 0.0848817 0.111184 0.111184 
    Block 492 cell size :
        i : 1
        j : 0.0544097 0.0544097 0.0934542 0.0934542 
        k : 0.0523324 0.0523324 0.0786781 0.0786781 
    Block 493 cell size :
        i : 1
        j : 0.055991 0.055991 0.102486 0.102486 
        k : 0.0921446 0.0921446 0.091876 0.091876 
    Block 494 cell size :
        i : 1
        j : 0.0823286 0.0823286 0.085771 0.085771 
        k : 0.0723674 0.0723674 0.0688748 0.0688748 
    Block 495 cell size :
        i : 1
        j : 0.0750763 0.0750763 0.0823286 0.0823286 
        k : 0.0668787 0.0668787 0.0665301 0.0665301 
    Block 496 cell size :
        i : 1
        j : 0.052631 0.052631 0.0545414 0.0545414 
        k : 0.0452132 0.0452132 0.0484826 0.0484826 
    Block 497 cell size :
        i : 1
        j : 0.0526272 0.0526272 0.0550297 0.0550297 
        k : 0.052632 0.052632 0.0610215 0.0610215 
    Block 498 cell size :
        i : 1
        j : 0.0743666 0.0743666 0.0601994 0.0601994 
        k : 0.0610215 0.0610215 0.0910943 0.0910943 
    Block 499 cell size :
        i : 1
        j : 0.066964 0.066964 0.0660263 0.0660263 
        k : 0.046982 0.046982 0.049876 0.049876 
    Block 500 cell size :
        i : 1
        j : 0.0469925 0.0469925 0.061879 0.061879 
        k : 0.047586 0.047586 0.053751 0.053751 
    Block 501 cell size :
        i : 1
        j : 0.0569052 0.0569052 0.0685425 0.0685425 
        k : 0.0451175 0.0451175 0.0758918 0.0758918 
    Block 502 cell size :
        i : 1
        j : 0.0484779 0.0484779 0.0758918 0.0758918 
        k : 0.05499 0.05499 0.089319 0.089319 
    Block 503 cell size :
        i : 1
        j : 0.0362618 0.0362618 0.0625053 0.0625053 
        k : 0.0569052 0.0569052 0.0444529 0.0444529 
    Block 504 cell size :
        i : 1
        j : 0.0535594 0.0535594 0.0746491 0.0746491 
        k : 0.0484779 0.0484779 0.0726083 0.0726083 
    Block 505 cell size :
        i : 1
        j : 0.0769626 0.0769626 0.0726083 0.0726083 
        k : 0.0646319 0.0646319 0.089926 0.089926 
    Block 506 cell size :
        i : 1
        j : 0.0685812 0.0685812 0.0671653 0.0671653 
        k : 0.0496369 0.0496369 0.052631 0.052631 
    Block 507 cell size :
        i : 1
        j : 0.0458594 0.0458594 0.0420117 0.0420117 
        k : 0.0444529 0.0444529 0.052631 0.052631 
    Block 508 cell size :
        i : 1
        j : 0.0464915 0.0464915 0.0562191 0.0562191 
        k : 0.0553244 0.0553244 0.0521665 0.0521665 
    Block 509 cell size :
        i : 1
        j : 0.0441199 0.0441199 0.048226 0.048226 
        k : 0.052631 0.052631 0.0492382 0.0492382 
    Block 510 cell size :
        i : 1
        j : 0.0476236 0.0476236 0.052632 0.052632 
        k : 0.0626756 0.0626756 0.0586702 0.0586702 
    Block 511 cell size :
        i : 1
        j : 0.0545414 0.0545414 0.0574462 0.0574462 
        k : 0.0436326 0.0436326 0.0477522 0.0477522 
    Block 512 cell size :
        i : 1
        j : 0.0631832 0.0631832 0.0764349 0.0764349 
        k : 0.0762119 0.0762119 0.0729158 0.0729158 
    Block 513 cell size :
        i : 1
        j : 0.0661397 0.0661397 0.0729158 0.0729158 
        k : 0.0618586 0.0618586 0.0715482 0.0715482 
    Block 514 cell size :
        i : 1
        j : 0.0542734 0.0542734 0.0597438 0.0597438 
        k : 0.0574885 0.0574885 0.0647084 0.0647084 
    Block 515 cell size :
        i : 1
        j : 0.0585152 0.0585152 0.0561187 0.0561187 
        k : 0.0594004 0.0594004 0.0627169 0.0627169 
    Block 516 cell size :
        i : 1
        j : 0.0568065 0.0568065 0.0589557 0.0589557 
        k : 0.0530631 0.0530631 0.0557044 0.0557044 
    Block 517 cell size :
        i : 1
        j : 0.0528042 0.0528042 0.055719 0.055719 
        k : 0.0506803 0.0506803 0.0514992 0.0514992 
    Block 518 cell size :
        i : 1
        j : 0.0636606 0.0636606 0.063472 0.063472 
        k : 0.05184 0.05184 0.052632 0.052632 
    Block 519 cell size :
        i : 1
        j : 0.0638185 0.0638185 0.0636606 0.0636606 
        k : 0.051863 0.051863 0.052631 0.052631 
    Block 520 cell size :
        i : 1
        j : 0.050299 0.050299 0.0528383 0.0528383 
        k : 0.05 0.05 0.0502082 0.0502082 
    Block 521 cell size :
        i : 1
        j : 0.0480396 0.0480396 0.050299 0.050299 
        k : 0.05 0.05 0.0505809 0.0505809 
    Block 522 cell size :
        i : 1
        j : 0.051108 0.051108 0.0524156 0.0524156 
        k : 0.0507827 0.0507827 0.05 0.05 
    Block 523 cell size :
        i : 1
        j : 0.0635875 0.0635875 0.0637023 0.0637023 
        k : 0.051108 0.051108 0.0517135 0.0517135 
    Block 524 cell size :
        i : 1
        j : 0.0639794 0.0639794 0.0638185 0.0638185 
        k : 0.051868 0.051868 0.052632 0.052632 
    Block 525 cell size :
        i : 1
        j : 0.0641478 0.0641478 0.0639794 0.0639794 
        k : 0.051864 0.051864 0.052631 0.052631 
    Block 526 cell size :
        i : 1
        j : 0.0643298 0.0643298 0.0641478 0.0641478 
        k : 0.051844 0.051844 0.052632 0.052632 
    Block 527 cell size :
        i : 1
        j : 0.0645481 0.0645481 0.0643298 0.0643298 
        k : 0.051734 0.051734 0.052631 0.052631 
    Block 528 cell size :
        i : 1
        j : 0.0646832 0.0646832 0.0644652 0.0644652 
        k : 0.050507 0.050507 0.051378 0.051378 
    Block 529 cell size :
        i : 1
        j : 0.0413343 0.0413343 0.0469925 0.0469925 
        k : 0.048741 0.048741 0.0445168 0.0445168 
    Block 530 cell size :
        i : 1
        j : 0.0494221 0.0494221 0.0395102 0.0395102 
        k : 0.0355858 0.0355858 0.053751 0.053751 
    Block 531 cell size :
        i : 1
        j : 0.0929896 0.0929896 0.084709 0.084709 
        k : 0.0934295 0.0934295 0.112407 0.112407 
    Block 532 cell size :
        i : 1
        j : 0.0779419 0.0779419 0.0831589 0.0831589 
        k : 0.064259 0.064259 0.0929896 0.0929896 
    Block 533 cell size :
        i : 1
        j : 0.0592394 0.0592394 0.0618112 0.0618112 
        k : 0.0559065 0.0559065 0.0648703 0.0648703 
    Block 534 cell size :
        i : 1
        j : 0.057863 0.057863 0.061445 0.061445 
        k : 0.0592394 0.0592394 0.0564246 0.0564246 
    Block 535 cell size :
        i : 1
        j : 0.0574773 0.0574773 0.0595349 0.0595349 
        k : 0.0539517 0.0539517 0.0567729 0.0567729 
    Block 536 cell size :
        i : 1
        j : 0.05054 0.05054 0.0539243 0.0539243 
        k : 0.0524955 0.0524955 0.0574773 0.0574773 
    Block 537 cell size :
        i : 1
        j : 0.0465148 0.0465148 0.0615327 0.0615327 
        k : 0.0531055 0.0531055 0.0524955 0.0524955 
    Block 538 cell size :
        i : 1
        j : 0.0719293 0.0719293 0.0746084 0.0746084 
        k : 0.052632 0.052632 0.064259 0.064259 
    Block 539 cell size :
        i : 1
        j : 0.0498001 0.0498001 0.0649957 0.0649957 
        k : 0.052631 0.052631 0.0560029 0.0560029 
    Block 540 cell size :
        i : 1
        j : 0.0618112 0.0618112 0.0806037 0.0806037 
        k : 0.0614048 0.0614048 0.0757883 0.0757883 
    Block 541 cell size :
        i : 1
        j : 0.0795272 0.0795272 0.0806037 0.0806037 
        k : 0.0790058 0.0790058 0.0825093 0.0825093 
    Block 542 cell size :
        i : 1
[...]
        k : 0.00242136 0.00242136 0.00401823 0.00401823 
    Block 3967 cell size :
        i : 1
        j : 0.00269122 0.00269122 0 0 
        k : 0.00242136 0.00242136 0.00345345 0.00345345 
    Block 3968 cell size :
        i : 1
        j : 0.0042676 0.0042676 0 0 
        k : 0.00131767 0.00131767 0.00431818 0.00431818 
    Block 3969 cell size :
        i : 1
        j : 0.00392967 0.00392967 0 0 
        k : 0.00131767 0.00131767 0.00401823 0.00401823 
    Block 3970 cell size :
        i : 1
        j : 0.00323608 0.00323608 0 0 
        k : 0.00326488 0.00326488 0.00388132 0.00388132 
    Block 3971 cell size :
        i : 1
        j : 0.00378555 0.00378555 0 0 
        k : 0.00323608 0.00323608 0.00380276 0.00380276 
    Block 3972 cell size :
        i : 1
        j : 0.00281124 0.00281124 0 0 
        k : 0.00312367 0.00312367 0.00323276 0.00323276 
    Block 3973 cell size :
        i : 1
        j : 0.0026685 0.0026685 0 0 
        k : 0.00281124 0.00281124 0.00326488 0.00326488 
    Block 3974 cell size :
        i : 1
        j : 0.00286362 0.00286362 0 0 
        k : 0.00337672 0.00337672 0.00378555 0.00378555 
    Block 3975 cell size :
        i : 1
        j : 0.00257652 0.00257652 0 0 
        k : 0.00273083 0.00273083 0.00286362 0.00286362 
    Block 3976 cell size :
        i : 1
        j : 0.00257652 0.00257652 0 0 
        k : 0.00259588 0.00259588 0.00297349 0.00297349 
    Block 3977 cell size :
        i : 1
        j : 0.00247112 0.00247112 0 0 
        k : 0.00237551 0.00237551 0.00297349 0.00297349 
    Block 3978 cell size :
        i : 1
        j : 0.00247112 0.00247112 0 0 
        k : 0.00274285 0.00274285 0.00331883 0.00331883 
    Block 3979 cell size :
        i : 1
        j : 0.0013748 0.0013748 0 0 
        k : 0.00258456 0.00258456 0.00331883 0.00331883 
    Block 3980 cell size :
        i : 1
        j : 0.0013748 0.0013748 0 0 
        k : 0.00299873 0.00299873 0.00372244 0.00372244 
    Block 3981 cell size :
        i : 1
        j : 0.00316143 0.00316143 0 0 
        k : 0.00303443 0.00303443 0.00424335 0.00424335 
    Block 3982 cell size :
        i : 1
        j : 0.00329409 0.00329409 0 0 
        k : 0.00305901 0.00305901 0.00372704 0.00372704 
    Block 3983 cell size :
        i : 1
        j : 0.00312367 0.00312367 0 0 
        k : 0.00255384 0.00255384 0.00372704 0.00372704 
    Block 3984 cell size :
        i : 1
        j : 0.00373117 0.00373117 0 0 
        k : 0.0033814 0.0033814 0.00385972 0.00385972 
    Block 3985 cell size :
        i : 1
        j : 0.00329409 0.00329409 0 0 
        k : 0.00274524 0.00274524 0.00385972 0.00385972 
    Block 3986 cell size :
        i : 1
        j : 0.00256358 0.00256358 0 0 
        k : 0.00316143 0.00316143 0.00357825 0.00357825 
    Block 3987 cell size :
        i : 1
        j : 0.00372143 0.00372143 0 0 
        k : 0.00357825 0.00357825 0.003804 0.003804 
    Block 3988 cell size :
        i : 1
        j : 0.00274041 0.00274041 0 0 
        k : 0.00372143 0.00372143 0.00373117 0.00373117 
    Block 3989 cell size :
        i : 1
        j : 0.00330015 0.00330015 0 0 
        k : 0.00301493 0.00301493 0.0034147 0.0034147 
    Block 3990 cell size :
        i : 1
        j : 0.00311616 0.00311616 0 0 
        k : 0.00312325 0.00312325 0.00330015 0.00330015 
    Block 3991 cell size :
        i : 1
        j : 0.00274494 0.00274494 0 0 
        k : 0.00218089 0.00218089 0.00312325 0.00312325 
    Block 3992 cell size :
        i : 1
        j : 0.00204273 0.00204273 0 0 
        k : 0.00274494 0.00274494 0.00309123 0.00309123 
    Block 3993 cell size :
        i : 1
        j : 0.00303443 0.00303443 0 0 
        k : 0.00299213 0.00299213 0.00309123 0.00309123 
    Block 3994 cell size :
        i : 1
        j : 0.00326493 0.00326493 0 0 
        k : 0.00349241 0.00349241 0.00372071 0.00372071 
    Block 3995 cell size :
        i : 1
        j : 0.00301493 0.00301493 0 0 
        k : 0.00290934 0.00290934 0.00372071 0.00372071 
    Block 3996 cell size :
        i : 1
        j : 0.00361437 0.00361437 0 0 
        k : 0.00340544 0.00340544 0.00372404 0.00372404 
    Block 3997 cell size :
        i : 1
        j : 0.00326493 0.00326493 0 0 
        k : 0.0029271 0.0029271 0.00372404 0.00372404 
    Block 3998 cell size :
        i : 1
        j : 0.00269122 0.00269122 0 0 
        k : 0.0024363 0.0024363 0.00337765 0.00337765 
    Block 3999 cell size :
        i : 1
        j : 0.00275001 0.00275001 0 0 
        k : 0.0024363 0.0024363 0.00361437 0.00361437 
    Block 4000 cell size :
        i : 1
        j : 0.00392967 0.00392967 0 0 
        k : 0.00119916 0.00119916 0.00417704 0.00417704 
    Block 4001 cell size :
        i : 1
        j : 0.00310356 0.00310356 0 0 
        k : 0.00119916 0.00119916 0.00337765 0.00337765 
    Block 4002 cell size :
        i : 1
        j : 0.00255384 0.00255384 0 0 
        k : 0.00329967 0.00329967 0.0035838 0.0035838 
    Block 4003 cell size :
        i : 1
        j : 0.0026685 0.0026685 0 0 
        k : 0.00327106 0.00327106 0.00329967 0.00329967 
    Block 4004 cell size :
        i : 1
        j : 0.00296148 0.00296148 0 0 
        k : 0.00327106 0.00327106 0.00337672 0.00337672 
    Block 4005 cell size :
        i : 1
        j : 0.00231704 0.00231704 0 0 
        k : 0.00287178 0.00287178 0.00296148 0.00296148 
    Block 4006 cell size :
        i : 1
        j : 0.00196583 0.00196583 0 0 
        k : 0.00231704 0.00231704 0.00278301 0.00278301 
    Block 4007 cell size :
        i : 1
        j : 0.00273083 0.00273083 0 0 
        k : 0.00278037 0.00278037 0.00278301 0.00278301 
    Block 4008 cell size :
        i : 1
        j : 0.0023767 0.0023767 0 0 
        k : 0.00213217 0.00213217 0.00278037 0.00278037 
    Block 4009 cell size :
        i : 1
        j : 0.0023767 0.0023767 0 0 
        k : 0.00237551 0.00237551 0.00296534 0.00296534 
    Block 4010 cell size :
        i : 1
        j : 0.00132915 0.00132915 0 0 
        k : 0.00222751 0.00222751 0.00296534 0.00296534 
    Block 4011 cell size :
        i : 1
        j : 0.00132915 0.00132915 0 0 
        k : 0.00258456 0.00258456 0.00330458 0.00330458 
    Block 4012 cell size :
        i : 1
        j : 0.00262337 0.00262337 0 0 
        k : 0.00275393 0.00275393 0.00299213 0.00299213 
    Block 4013 cell size :
        i : 1
        j : 0.00262337 0.00262337 0 0 
        k : 0.00256358 0.00256358 0.00322893 0.00322893 
    Block 4014 cell size :
        i : 1
        j : 0.00369476 0.00369476 0 0 
        k : 0.00274524 0.00274524 0.0038994 0.0038994 
    Block 4015 cell size :
        i : 1
        j : 0.0035838 0.0035838 0 0 
        k : 0.00297858 0.00297858 0.0038994 0.0038994 
    Block 4016 cell size :
        i : 1
        j : 0.00291029 0.00291029 0 0 
        k : 0.00322893 0.00322893 0.00355255 0.00355255 
    Block 4017 cell size :
        i : 1
        j : 0.00274041 0.00274041 0 0 
        k : 0.00351538 0.00351538 0.00355255 0.00355255 
    Block 4018 cell size :
        i : 1
        j : 0.00254648 0.00254648 0 0 
        k : 0.00351538 0.00351538 0.00369476 0.00369476 
    Block 4019 cell size :
        i : 1
        j : 0.00279922 0.00279922 0 0 
        k : 0.00244339 0.00244339 0.00290934 0.00290934 
    Block 4020 cell size :
        i : 1
        j : 0.00218089 0.00218089 0 0 
        k : 0.00214532 0.00214532 0.00279922 0.00279922 
    Block 4021 cell size :
        i : 1
        j : 0.00185583 0.00185583 0 0 
        k : 0.00177608 0.00177608 0.00214532 0.00214532 
    Block 4022 cell size :
        i : 1
        j : 0.00185583 0.00185583 0 0 
        k : 0.00204273 0.00204273 0.00225701 0.00225701 
    Block 4023 cell size :
        i : 1
        j : 0.00281954 0.00281954 0 0 
        k : 0.00275393 0.00275393 0.00298784 0.00298784 
    Block 4024 cell size :
        i : 1
        j : 0.00143029 0.00143029 0 0 
        k : 0.00225701 0.00225701 0.00255797 0.00255797 
    Block 4025 cell size :
        i : 1
        j : 0.00167678 0.00167678 0 0 
        k : 0.00255797 0.00255797 0.00281954 0.00281954 
    Block 4026 cell size :
        i : 1
        j : 0.00271331 0.00271331 0 0 
        k : 0.0029271 0.0029271 0.00295562 0.00295562 
    Block 4027 cell size :
        i : 1
        j : 0.00244339 0.00244339 0 0 
        k : 0.002618 0.002618 0.00295562 0.00295562 
    Block 4028 cell size :
        i : 1
        j : 0.00275001 0.00275001 0 0 
        k : 0.00213739 0.00213739 0.00335817 0.00335817 
    Block 4029 cell size :
        i : 1
        j : 0.00233925 0.00233925 0 0 
        k : 0.00213739 0.00213739 0.00271331 0.00271331 
    Block 4030 cell size :
        i : 1
        j : 0.00310356 0.00310356 0 0 
        k : 0.00124203 0.00124203 0.00372034 0.00372034 
    Block 4031 cell size :
        i : 1
        j : 0.00271686 0.00271686 0 0 
        k : 0.00124203 0.00124203 0.00335817 0.00335817 
    Block 4032 cell size :
        i : 1
        j : 0.00249891 0.00249891 0 0 
        k : 0.00297858 0.00297858 0.00327667 0.00327667 
    Block 4033 cell size :
        i : 1
        j : 0.00287178 0.00287178 0 0 
        k : 0.00201635 0.00201635 0.00327667 0.00327667 
    Block 4034 cell size :
        i : 1
        j : 0.00237603 0.00237603 0 0 
        k : 0.00201635 0.00201635 0.00237954 0.00237954 
    Block 4035 cell size :
        i : 1
        j : 0.00196583 0.00196583 0 0 
        k : 0.00232148 0.00232148 0.00237954 0.00237954 
    Block 4036 cell size :
        i : 1
        j : 0.00161105 0.00161105 0 0 
        k : 0.00232148 0.00232148 0.00247297 0.00247297 
    Block 4037 cell size :
        i : 1
        j : 0.00247297 0.00247297 0 0 
        k : 0.00213217 0.00213217 0.00309282 0.00309282 
    Block 4038 cell size :
        i : 1
        j : 0.00123331 0.00123331 0 0 
        k : 0.0023474 0.0023474 0.00309282 0.00309282 
    Block 4039 cell size :
        i : 1
        j : 0.00123331 0.00123331 0 0 
        k : 0.00222751 0.00222751 0.00292473 0.00292473 
    Block 4040 cell size :
        i : 1
        j : 0.00283661 0.00283661 0 0 
        k : 0.00244603 0.00244603 0.00298784 0.00298784 
    Block 4041 cell size :
        i : 1
        j : 0.00283661 0.00283661 0 0 
        k : 0.00291029 0.00291029 0.00300466 0.00300466 
    Block 4042 cell size :
        i : 1
        j : 0.00273187 0.00273187 0 0 
        k : 0.00300466 0.00300466 0.00326549 0.00326549 
    Block 4043 cell size :
        i : 1
        j : 0.00326549 0.00326549 0 0 
        k : 0.00254648 0.00254648 0.00352637 0.00352637 
    Block 4044 cell size :
        i : 1
        j : 0.00249891 0.00249891 0 0 
        k : 0.00295082 0.00295082 0.00352637 0.00352637 
    Block 4045 cell size :
        i : 1
        j : 0.00266999 0.00266999 0 0 
        k : 0.002618 0.002618 0.00290879 0.00290879 
    Block 4046 cell size :
        i : 1
        j : 0.00177608 0.00177608 0 0 
        k : 0.00248913 0.00248913 0.00290879 0.00290879 
    Block 4047 cell size :
        i : 1
        j : 0.00143029 0.00143029 0 0 
        k : 0.00216629 0.00216629 0.00248913 0.00248913 
    Block 4048 cell size :
        i : 1
        j : 0.00242508 0.00242508 0 0 
        k : 0.00217123 0.00217123 0.00244603 0.00244603 
    Block 4049 cell size :
        i : 1
        j : 0.00216629 0.00216629 0 0 
        k : 0.00190329 0.00190329 0.00217742 0.00217742 
    Block 4050 cell size :
        i : 1
        j : 0.00190329 0.00190329 0 0 
        k : 0.00167678 0.00167678 0.00202783 0.00202783 
    Block 4051 cell size :
        i : 1
        j : 0.00190999 0.00190999 0 0 
        k : 0.00202783 0.00202783 0.00217123 0.00217123 
    Block 4052 cell size :
        i : 1
        j : 0.00233925 0.00233925 0 0 
        k : 0.00224441 0.00224441 0.00291004 0.00291004 
    Block 4053 cell size :
        i : 1
        j : 0.0021704 0.0021704 0 0 
        k : 0.00224441 0.00224441 0.00266999 0.00266999 
    Block 4054 cell size :
        i : 1
        j : 0.00271686 0.00271686 0 0 
        k : 0.00117327 0.00117327 0.00331075 0.00331075 
    Block 4055 cell size :
        i : 1
        j : 0.00235761 0.00235761 0 0 
        k : 0.00117327 0.00117327 0.00291004 0.00291004 
    Block 4056 cell size :
        i : 1
        j : 0.00256054 0.00256054 0 0 
        k : 0.00295082 0.00295082 0.00295713 0.00295713 
    Block 4057 cell size :
        i : 1
        j : 0.00237603 0.00237603 0 0 
        k : 0.00202293 0.00202293 0.00295713 0.00295713 
    Block 4058 cell size :
        i : 1
        j : 0.00191709 0.00191709 0 0 
        k : 0.00202293 0.00202293 0.00250983 0.00250983 
    Block 4059 cell size :
        i : 1
        j : 0.00161105 0.00161105 0 0 
        k : 0.0019849 0.0019849 0.00250983 0.00250983 
    Block 4060 cell size :
        i : 1
        j : 0.000879732 0.000879732 0 0 
        k : 0.00142134 0.00142134 0.0019849 0.0019849 
    Block 4061 cell size :
        i : 1
        j : 0.00186509 0.00186509 0 0 
        k : 0.00142134 0.00142134 0.00253993 0.00253993 
    Block 4062 cell size :
        i : 1
        j : 0.000879732 0.000879732 0 0 
        k : 0.0023474 0.0023474 0.00268476 0.00268476 
    Block 4063 cell size :
        i : 1
        j : 0.00230526 0.00230526 0 0 
        k : 0.00197246 0.00197246 0.00242508 0.00242508 
    Block 4064 cell size :
        i : 1
        j : 0.0025655 0.0025655 0 0 
        k : 0.00230526 0.00230526 0.00273187 0.00273187 
    Block 4065 cell size :
        i : 1
        j : 0.00255526 0.00255526 0 0 
        k : 0.00157344 0.00157344 0.0025655 0.0025655 
    Block 4066 cell size :
        i : 1
        j : 0.00253157 0.00253157 0 0 
        k : 0.00101079 0.00101079 0.00255526 0.00255526 
    Block 4067 cell size :
        i : 1
        j : 0.00165473 0.00165473 0 0 
        k : 0.00253157 0.00253157 0.00256054 0.00256054 
    Block 4068 cell size :
        i : 1
        j : 0.00181993 0.00181993 0 0 
        k : 0.00188836 0.00188836 0.00197246 0.00197246 
    Block 4069 cell size :
        i : 1
        j : 0.0021704 0.0021704 0 0 
        k : 0.00222665 0.00222665 0.0026237 0.0026237 
    Block 4070 cell size :
        i : 1
        j : 0.00217742 0.00217742 0 0 
        k : 0.00195201 0.00195201 0.00222665 0.00222665 
    Block 4071 cell size :
        i : 1
        j : 0.00193149 0.00193149 0 0 
        k : 0.00195201 0.00195201 0.00207778 0.00207778 
    Block 4072 cell size :
        i : 1
        j : 0.00190999 0.00190999 0 0 
        k : 0.00190541 0.00190541 0.00207778 0.00207778 
    Block 4073 cell size :
        i : 1
        j : 0.00188836 0.00188836 0 0 
        k : 0.00167453 0.00167453 0.00190541 0.00190541 
    Block 4074 cell size :
        i : 1
        j : 0.00235761 0.00235761 0 0 
        k : 0.00121793 0.00121793 0.00292642 0.00292642 
    Block 4075 cell size :
        i : 1
        j : 0.00208506 0.00208506 0 0 
        k : 0.00121793 0.00121793 0.0026237 0.0026237 
    Block 4076 cell size :
        i : 1
        j : 0.00196504 0.00196504 0 0 
        k : 0.00165473 0.00165473 0.00261777 0.00261777 
    Block 4077 cell size :
        i : 1
        j : 0.00191709 0.00191709 0 0 
        k : 0.0018516 0.0018516 0.00261777 0.00261777 
    Block 4078 cell size :
        i : 1
        j : 0.00113437 0.00113437 0 0 
        k : 0.0018516 0.0018516 0.00196532 0.00196532 
    Block 4079 cell size :
        i : 1
        j : 0.00186509 0.00186509 0 0 
        k : 0.000732279 0.000732279 0.00196532 0.00196532 
    Block 4080 cell size :
        i : 1
        j : 0.000732279 0.000732279 0 0 
        k : 0.000802408 0.000802408 0.0012688 0.0012688 
    Block 4081 cell size :
        i : 1
        j : 0.0015 0.0015 0 0 
        k : 0.00181993 0.00181993 0.00211711 0.00211711 
    Block 4082 cell size :
        i : 1
        j : 0.00157344 0.00157344 0 0 
        k : 0.00158504 0.00158504 0.00211711 0.00211711 
    Block 4083 cell size :
        i : 1
        j : 0.00146912 0.00146912 0 0 
        k : 0.00158504 0.00158504 0.0016615 0.0016615 
    Block 4084 cell size :
        i : 1
        j : 0.0016615 0.0016615 0 0 
        k : 0.00101079 0.00101079 0.00166312 0.00166312 
    Block 4085 cell size :
        i : 1
        j : 0.00137935 0.00137935 0 0 
        k : 0.00166312 0.00166312 0.00196504 0.00196504 
    Block 4086 cell size :
        i : 1
        j : 0.00167453 0.00167453 0 0 
        k : 0.00193224 0.00193224 0.00252752 0.00252752 
    Block 4087 cell size :
        i : 1
        j : 0.0015 0.0015 0 0 
        k : 0.00185931 0.00185931 0.00193224 0.00193224 
    Block 4088 cell size :
        i : 1
        j : 0.00208506 0.00208506 0 0 
        k : 0.00122102 0.00122102 0.00268534 0.00268534 
    Block 4089 cell size :
        i : 1
        j : 0.00143449 0.00143449 0 0 
        k : 0.00122102 0.00122102 0.00193149 0.00193149 
    Block 4090 cell size :
        i : 1
        j : 0.00143449 0.00143449 0 0 
        k : 0.00252752 0.00252752 0.00295973 0.00295973 
    Block 4091 cell size :
        i : 1
        j : 0.00114253 0.00114253 0 0 
        k : 0.00267711 0.00267711 0.00295973 0.00295973 
    Block 4092 cell size :
        i : 1
        j : 0.00137935 0.00137935 0 0 
        k : 0.00151242 0.00151242 0.00180997 0.00180997 
    Block 4093 cell size :
        i : 1
        j : 0.00113437 0.00113437 0 0 
        k : 0.00139605 0.00139605 0.00151242 0.00151242 
    Block 4094 cell size :
        i : 1
        j : 0.00119246 0.00119246 0 0 
        k : 0.000950607 0.000950607 0.00139605 0.00139605 
    Block 4095 cell size :
        i : 1
        j : 0.00119246 0.00119246 0 0 
        k : 0.0012688 0.0012688 0.00142241 0.00142241 
    Block 4096 cell size :
        i : 1
        j : 0.00199125 0.00199125 0 0 
        k : 0.00185931 0.00185931 0.00209243 0.00209243 
    Block 4097 cell size :
        i : 1
        j : 0.00146912 0.00146912 0 0 
        k : 0.00185238 0.00185238 0.00209243 0.00209243 
    Block 4098 cell size :
        i : 1
        j : 0.00180997 0.00180997 0 0 
        k : 0.00162055 0.00162055 0.00185238 0.00185238 
    Block 4099 cell size :
        i : 1
        j : 0.00114253 0.00114253 0 0 
        k : 0.00117685 0.00117685 0.00130133 0.00130133 
    Block 4100 cell size :
        i : 1
        j : 0.00141491 0.00141491 0 0 
        k : 0.00117685 0.00117685 0.00199125 0.00199125 
    Block 4101 cell size :
        i : 1
        j : 0.000676229 0.000676229 0 0 
        k : 0.00130133 0.00130133 0.00136696 0.00136696 
    Block 4102 cell size :
        i : 1
        j : 0.00130149 0.00130149 0 0 
        k : 0.00086178 0.00086178 0.00162055 0.00162055 
    Block 4103 cell size :
        i : 1
        j : 0.00130149 0.00130149 0 0 
        k : 0.000950607 0.000950607 0.00187519 0.00187519 
    Block 4104 cell size :
        i : 1
        j : 0.000405178 0.000405178 0 0 
        k : 0.00133758 0.00133758 0.00136696 0.00136696 
    Block 4105 cell size :
        i : 1
        j : 0.000405178 0.000405178 0 0 
        k : 0.00141491 0.00141491 0.00153053 0.00153053 
    Block 4106 cell size :
        i : 1
        j : 0.00153053 0.00153053 0 0 
        k : 0.00086178 0.00086178 0.00183819 0.00183819 
    Block 4107 cell size :
        i : 1
        j : 0.000109 0.000109 0 0 
        k : 0.000109 0.000109 0.000154149 0.000154149 
    Block 4108 cell size :
        i : 1
        j : 0.000115 0.000115 0 0 
        k : 0.000115 0.000115 0.000162635 0.000162635 

Writing polyMesh
----------------
Mesh Information
----------------
  boundingBox: (-0.75 -0.75 0) (1.75 0.75 1)
  nPoints: 5938
  nCells: 4109
  nFaces: 15296
  nInternalFaces: 6926
----------------
Patches
----------------
  patch 0 (start: 6926 size: 29) name: top
  patch 1 (start: 6955 size: 29) name: bottom
  patch 2 (start: 6984 size: 17) name: inlet
  patch 3 (start: 7001 size: 17) name: outlet
  patch 4 (start: 7018 size: 60) name: deck
  patch 5 (start: 7078 size: 8218) name: frontAndBack
  patch 6 (start: 15296 size: 0) name: defaultFaces

End

