/*---------------------------------------------------------------------------*\
  =========                 |
  \\      /  F ield         | OpenFOAM: The Open Source CFD Toolbox
   \\    /   O peration     | Website:  https://openfoam.org
    \\  /    A nd           | Version:  8
     \\/     M anipulation  |
\*---------------------------------------------------------------------------*/
Build  : 8-9b73cf21a682
Exec   : blockMesh
Date   : Oct 11 2020
Time   : 18:06:58
Host   : "bnes"
PID    : 23876
I/O    : uncollated
Case   : /media/sbkim/2266B8F966B8CEB3/git/openfoam_seo/of/org/jbk2/tower_lon_piso2
nProcs : 1
sigFpe : Enabling floating point exception trapping (FOAM_SIGFPE).
fileModificationChecking : Monitoring run-time modified files using timeStampMaster (fileModificationSkew 10)
allowSystemOperations : Allowing user-supplied system call operations

// * * * * * * * * * * * * * * * * * * * * * * * * * * * * * * * * * * * * * //
Create time

Deleting polyMesh directory
    "/media/sbkim/2266B8F966B8CEB3/git/openfoam_seo/of/org/jbk2/tower_lon_piso2/constant/polyMesh"
Creating block mesh from
    "system/blockMeshDict"
Creating block edges
No non-planar block faces defined
Creating topology blocks
Creating topology patches

Creating block mesh topology
--> FOAM Warning : 
    From function Foam::polyMesh::polyMesh(const Foam::IOobject&, Foam::pointField&&, const cellShapeList&, const faceListList&, const wordList&, const Foam::PtrList<Foam::dictionary>&, const Foam::word&, const Foam::word&, bool)
    in file meshes/polyMesh/polyMeshFromShapeMesh.C at line 873
    Found 1446 undefined faces in mesh; adding to default patch.

Check topology

	Basic statistics
		Number of internal faces : 53995
		Number of boundary faces : 56776
		Number of defined boundary faces : 56776
		Number of undefined boundary faces : 0
	Checking patch -> block consistency

Creating block offsets
Creating merge list ...

Creating polyMesh from blockMesh
Creating patches
Creating cells
Creating points with scale 1
    Block 0 cell size :
        i : 1
        j : 0.0258657 0.0258657 0.0282729 0.0282729 
        k : 0.023887 0.023887 0.0244856 0.0244856 
    Block 1 cell size :
        i : 1
        j : 0.0245129 0.0245129 0.0258657 0.0258657 
        k : 0.022493 0.022493 0.0228006 0.0228006 
    Block 2 cell size :
        i : 1
        j : 0.023559 0.023559 0.0244856 0.0244856 
        k : 0.0249593 0.0249593 0.027039 0.027039 
    Block 3 cell size :
        i : 1
        j : 0.027896 0.027896 0.027167 0.027167 
        k : 0.0282729 0.0282729 0.0321554 0.0321554 
    Block 4 cell size :
        i : 1
        j : 0.0380739 0.0380739 0.040058 0.040058 
        k : 0.0379443 0.0379443 0.040077 0.040077 
    Block 5 cell size :
        i : 1
        j : 0.0238849 0.0238849 0.0249593 0.0249593 
        k : 0.0228006 0.0228006 0.0220759 0.0220759 
    Block 6 cell size :
        i : 1
        j : 0.0237873 0.0237873 0.0245129 0.0245129 
        k : 0.022493 0.022493 0.0222192 0.0222192 
    Block 7 cell size :
        i : 1
        j : 0.0212352 0.0212352 0.023559 0.023559 
        k : 0.023188 0.023188 0.0245169 0.0245169 
    Block 8 cell size :
        i : 1
        j : 0.0270468 0.0270468 0.027896 0.027896 
        k : 0.027039 0.027039 0.0310744 0.0310744 
    Block 9 cell size :
        i : 1
        j : 0.0365869 0.0365869 0.035197 0.035197 
        k : 0.0362986 0.0362986 0.0379443 0.0379443 
    Block 10 cell size :
        i : 1
        j : 0.0326682 0.0326682 0.030933 0.030933 
        k : 0.0321554 0.0321554 0.0362986 0.0362986 
    Block 11 cell size :
        i : 1
        j : 0.0367832 0.0367832 0.0380739 0.0380739 
        k : 0.0366782 0.0366782 0.035625 0.035625 
    Block 12 cell size :
        i : 1
        j : 0.023188 0.023188 0.0226992 0.0226992 
        k : 0.02047 0.02047 0.0220759 0.0220759 
    Block 13 cell size :
        i : 1
        j : 0.0238849 0.0238849 0.0234089 0.0234089 
        k : 0.0215924 0.0215924 0.0222192 0.0222192 
    Block 14 cell size :
        i : 1
        j : 0.0237873 0.0237873 0.0234523 0.0234523 
        k : 0.0221072 0.0221072 0.022493 0.022493 
    Block 15 cell size :
        i : 1
        j : 0.0212653 0.0212653 0.0208944 0.0208944 
        k : 0.0185554 0.0185554 0.0212352 0.0212352 
    Block 16 cell size :
        i : 1
        j : 0.0228584 0.0228584 0.0270468 0.0270468 
        k : 0.0245169 0.0245169 0.0274063 0.0274063 
    Block 17 cell size :
        i : 1
        j : 0.0374433 0.0374433 0.0326682 0.0326682 
        k : 0.0310744 0.0310744 0.0416639 0.0416639 
    Block 18 cell size :
        i : 1
        j : 0.0365869 0.0365869 0.0421839 0.0421839 
        k : 0.0366782 0.0366782 0.0416639 0.0416639 
    Block 19 cell size :
        i : 1
        j : 0.0329459 0.0329459 0.0367832 0.0367832 
        k : 0.0330943 0.0330943 0.031366 0.031366 
    Block 20 cell size :
        i : 1
        j : 0.0208247 0.0208247 0.0208944 0.0208944 
        k : 0.02047 0.02047 0.020468 0.020468 
    Block 21 cell size :
        i : 1
        j : 0.0226992 0.0226992 0.0227545 0.0227545 
        k : 0.020568 0.020568 0.0215924 0.0215924 
    Block 22 cell size :
        i : 1
        j : 0.0234089 0.0234089 0.0232198 0.0232198 
        k : 0.0216261 0.0216261 0.0221072 0.0221072 
    Block 23 cell size :
        i : 1
        j : 0.0234523 0.0234523 0.0233623 0.0233623 
        k : 0.0221391 0.0221391 0.022493 0.022493 
    Block 24 cell size :
        i : 1
        j : 0.0185223 0.0185223 0.0212368 0.0212368 
        k : 0.018862 0.018862 0.0185554 0.0185554 
    Block 25 cell size :
        i : 1
        j : 0.0219018 0.0219018 0.0212653 0.0212653 
        k : 0.0177935 0.0177935 0.0228584 0.0228584 
    Block 26 cell size :
        i : 1
        j : 0.0247066 0.0247066 0.0374433 0.0374433 
        k : 0.0274063 0.0274063 0.0360853 0.0360853 
    Block 27 cell size :
        i : 1
        j : 0.0321039 0.0321039 0.0421839 0.0421839 
        k : 0.0379274 0.0379274 0.0330943 0.0330943 
    Block 28 cell size :
        i : 1
        j : 0.0291844 0.0291844 0.0329459 0.0329459 
        k : 0.0285274 0.0285274 0.027562 0.027562 
    Block 29 cell size :
        i : 1
        j : 0.0208247 0.0208247 0.022027 0.022027 
        k : 0.0167698 0.0167698 0.020568 0.020568 
    Block 30 cell size :
        i : 1
        j : 0.0145933 0.0145933 0.020468 0.020468 
        k : 0.0154192 0.0154192 0.0212368 0.0212368 
    Block 31 cell size :
        i : 1
        j : 0.0227545 0.0227545 0.0228894 0.0228894 
        k : 0.0210831 0.0210831 0.0216261 0.0216261 
    Block 32 cell size :
        i : 1
        j : 0.0232198 0.0232198 0.0232062 0.0232062 
        k : 0.0217611 0.0217611 0.0221391 0.0221391 
    Block 33 cell size :
        i : 1
        j : 0.0233623 0.0233623 0.0234374 0.0234374 
        k : 0.0222062 0.0222062 0.022493 0.022493 
    Block 34 cell size :
        i : 1
        j : 0.0143705 0.0143705 0.0185223 0.0185223 
        k : 0.0135649 0.0135649 0.0177935 0.0177935 
    Block 35 cell size :
        i : 1
        j : 0.0209848 0.0209848 0.0214784 0.0214784 
        k : 0.018862 0.018862 0.026773 0.026773 
    Block 36 cell size :
        i : 1
        j : 0.018332 0.018332 0.0247066 0.0247066 
        k : 0.0219018 0.0219018 0.0243562 0.0243562 
    Block 37 cell size :
        i : 1
        j : 0.0287492 0.0287492 0.0360853 0.0360853 
        k : 0.025735 0.025735 0.0379274 0.0379274 
    Block 38 cell size :
        i : 1
        j : 0.0281714 0.0281714 0.0321039 0.0321039 
        k : 0.0280765 0.0280765 0.0285274 0.0285274 
    Block 39 cell size :
        i : 1
        j : 0.0243 0.0243 0.0251614 0.0251614 
        k : 0.0266967 0.0266967 0.0291844 0.0291844 
    Block 40 cell size :
        i : 1
        j : 0.022027 0.022027 0.0226263 0.0226263 
        k : 0.0210142 0.0210142 0.0210831 0.0210831 
    Block 41 cell size :
        i : 1
        j : 0.0154192 0.0154192 0.0245155 0.0245155 
        k : 0.0188251 0.0188251 0.0167698 0.0167698 
    Block 42 cell size :
        i : 1
        j : 0.0188251 0.0188251 0.0209848 0.0209848 
        k : 0.0145933 0.0145933 0.0253443 0.0253443 
    Block 43 cell size :
        i : 1
        j : 0.0141383 0.0141383 0.0138406 0.0138406 
        k : 0.012556 0.012556 0.0157787 0.0157787 
    Block 44 cell size :
        i : 1
        j : 0.0204671 0.0204671 0.0213604 0.0213604 
        k : 0.0157787 0.0157787 0.026773 0.026773 
    Block 45 cell size :
        i : 1
        j : 0.0101101 0.0101101 0.0117409 0.0117409 
        k : 0.0115032 0.0115032 0.012556 0.012556 
    Block 46 cell size :
        i : 1
        j : 0.0228894 0.0228894 0.0229996 0.0229996 
        k : 0.0214201 0.0214201 0.0217611 0.0217611 
    Block 47 cell size :
        i : 1
        j : 0.0232062 0.0232062 0.0233476 0.0233476 
        k : 0.0219093 0.0219093 0.0222062 0.0222062 
    Block 48 cell size :
        i : 1
        j : 0.0234374 0.0234374 0.0236195 0.0236195 
        k : 0.0222898 0.0222898 0.022493 0.022493 
    Block 49 cell size :
        i : 1
        j : 0.0129356 0.0129356 0.018332 0.018332 
        k : 0.0143705 0.0143705 0.0197263 0.0197263 
    Block 50 cell size :
        i : 1
        j : 0.0135649 0.0135649 0.0222317 0.0222317 
        k : 0.0129356 0.0129356 0.0214784 0.0214784 
    Block 51 cell size :
        i : 1
        j : 0.0128036 0.0128036 0.0204671 0.0204671 
        k : 0.0115468 0.0115468 0.019785 0.019785 
    Block 52 cell size :
        i : 1
        j : 0.0121756 0.0121756 0.0101101 0.0101101 
        k : 0.00905573 0.00905573 0.0147529 0.0147529 
    Block 53 cell size :
        i : 1
        j : 0.0115468 0.0115468 0.0147529 0.0147529 
        k : 0.013244 0.013244 0.0141383 0.0141383 
    Block 54 cell size :
        i : 1
        j : 0.00905573 0.00905573 0.0129384 0.0129384 
        k : 0.00890743 0.00890743 0.0130454 0.0130454 
    Block 55 cell size :
        i : 1
        j : 0.0203094 0.0203094 0.025735 0.025735 
        k : 0.0243562 0.0243562 0.0245581 0.0245581 
    Block 56 cell size :
        i : 1
        j : 0.0261994 0.0261994 0.0287492 0.0287492 
        k : 0.0244446 0.0244446 0.0280765 0.0280765 
    Block 57 cell size :
        i : 1
        j : 0.0260062 0.0260062 0.0281714 0.0281714 
        k : 0.0246137 0.0246137 0.0251614 0.0251614 
    Block 58 cell size :
        i : 1
        j : 0.022947 0.022947 0.0233767 0.0233767 
        k : 0.0251031 0.0251031 0.0266967 0.0266967 
    Block 59 cell size :
        i : 1
        j : 0.0226263 0.0226263 0.0225711 0.0225711 
        k : 0.021201 0.021201 0.0214201 0.0214201 
    Block 60 cell size :
        i : 1
        j : 0.0221606 0.0221606 0.0245155 0.0245155 
        k : 0.0210142 0.0210142 0.024398 0.024398 
    Block 61 cell size :
        i : 1
        j : 0.0187104 0.0187104 0.0219414 0.0219414 
        k : 0.013984 0.013984 0.0253443 0.0253443 
    Block 62 cell size :
        i : 1
        j : 0.00965535 0.00965535 0.0175591 0.0175591 
        k : 0.0115457 0.0115457 0.0138406 0.0138406 
    Block 63 cell size :
        i : 1
        j : 0.0158831 0.0158831 0.0213604 0.0213604 
        k : 0.0187104 0.0187104 0.0175591 0.0175591 
    Block 64 cell size :
        i : 1
        j : 0.00989998 0.00989998 0.0117409 0.0117409 
        k : 0.00965535 0.00965535 0.0111596 0.0111596 
    Block 65 cell size :
        i : 1
        j : 0.0120178 0.0120178 0.0130454 0.0130454 
        k : 0.0115032 0.0115032 0.0117924 0.0117924 
    Block 66 cell size :
        i : 1
        j : 0.0229996 0.0229996 0.0232441 0.0232441 
        k : 0.0215816 0.0215816 0.0219093 0.0219093 
    Block 67 cell size :
        i : 1
        j : 0.0233476 0.0233476 0.0235789 0.0235789 
        k : 0.0220651 0.0220651 0.0222898 0.0222898 
    Block 68 cell size :
        i : 1
        j : 0.0236195 0.0236195 0.0238596 0.0238596 
        k : 0.0223913 0.0223913 0.022494 0.022494 
    Block 69 cell size :
        i : 1
        j : 0.0178934 0.0178934 0.0203094 0.0203094 
        k : 0.0197263 0.0197263 0.0213909 0.0213909 
    Block 70 cell size :
        i : 1
        j : 0.0187351 0.0187351 0.0222317 0.0222317 
        k : 0.019785 0.019785 0.0178934 0.0178934 
    Block 71 cell size :
        i : 1
        j : 0.013244 0.013244 0.0161504 0.0161504 
        k : 0.0128036 0.0128036 0.0180612 0.0180612 
    Block 72 cell size :
        i : 1
        j : 0.00890743 0.00890743 0.0152143 0.0152143 
        k : 0.0121756 0.0121756 0.0126505 0.0126505 
    Block 73 cell size :
        i : 1
        j : 0.0115247 0.0115247 0.0122391 0.0122391 
        k : 0.0129384 0.0129384 0.0133183 0.0133183 
    Block 74 cell size :
        i : 1
        j : 0.0207424 0.0207424 0.0244446 0.0244446 
        k : 0.0245581 0.0245581 0.0237214 0.0237214 
    Block 75 cell size :
        i : 1
        j : 0.0247535 0.0247535 0.0261994 0.0261994 
        k : 0.0228249 0.0228249 0.0246137 0.0246137 
    Block 76 cell size :
        i : 1
        j : 0.0233767 0.0233767 0.0229934 0.0229934 
        k : 0.024666 0.024666 0.0260062 0.0260062 
    Block 77 cell size :
        i : 1
        j : 0.022573 0.022573 0.02256 0.02256 
        k : 0.0240419 0.0240419 0.0251031 0.0251031 
    Block 78 cell size :
        i : 1
        j : 0.0225711 0.0225711 0.0229864 0.0229864 
        k : 0.0211069 0.0211069 0.0215816 0.0215816 
    Block 79 cell size :
        i : 1
        j : 0.0216588 0.0216588 0.0221606 0.0221606 
        k : 0.021201 0.021201 0.0207283 0.0207283 
    Block 80 cell size :
        i : 1
        j : 0.0219414 0.0219414 0.0210973 0.0210973 
        k : 0.0191232 0.0191232 0.024398 0.024398 
    Block 81 cell size :
        i : 1
        j : 0.013984 0.013984 0.0186014 0.0186014 
        k : 0.0158831 0.0158831 0.0206739 0.0206739 
    Block 82 cell size :
        i : 1
        j : 0.0115457 0.0115457 0.0119927 0.0119927 
        k : 0.00989998 0.00989998 0.017837 0.017837 
    Block 83 cell size :
        i : 1
        j : 0.0120178 0.0120178 0.0127598 0.0127598 
        k : 0.0119146 0.0119146 0.0111596 0.0111596 
    Block 84 cell size :
        i : 1
        j : 0.0118443 0.0118443 0.0115247 0.0115247 
        k : 0.0117924 0.0117924 0.0125777 0.0125777 
    Block 85 cell size :
        i : 1
        j : 0.0232441 0.0232441 0.0235619 0.0235619 
        k : 0.0217977 0.0217977 0.0220651 0.0220651 
    Block 86 cell size :
        i : 1
        j : 0.0229864 0.0229864 0.023704 0.023704 
        k : 0.0215548 0.0215548 0.0217977 0.0217977 
    Block 87 cell size :
        i : 1
        j : 0.0235789 0.0235789 0.0238752 0.0238752 
        k : 0.0222705 0.0222705 0.0223913 0.0223913 
    Block 88 cell size :
        i : 1
        j : 0.0238596 0.0238596 0.0241029 0.0241029 
        k : 0.0225163 0.0225163 0.022493 0.022493 
    Block 89 cell size :
        i : 1
        j : 0.0120779 0.0120779 0.0128631 0.0128631 
        k : 0.0133183 0.0133183 0.0135913 0.0135913 
    Block 90 cell size :
        i : 1
        j : 0.0212912 0.0212912 0.0213909 0.0213909 
        k : 0.0183737 0.0183737 0.0207424 0.0207424 
    Block 91 cell size :
        i : 1
        j : 0.0161504 0.0161504 0.0183737 0.0183737 
        k : 0.0187351 0.0187351 0.0190686 0.0190686 
    Block 92 cell size :
        i : 1
        j : 0.0166087 0.0166087 0.0180612 0.0180612 
        k : 0.0152143 0.0152143 0.0161901 0.0161901 
    Block 93 cell size :
        i : 1
        j : 0.0122391 0.0122391 0.0142744 0.0142744 
        k : 0.0126505 0.0126505 0.0145893 0.0145893 
    Block 94 cell size :
        i : 1
        j : 0.020532 0.020532 0.0228249 0.0228249 
        k : 0.0237214 0.0237214 0.0231019 0.0231019 
    Block 95 cell size :
        i : 1
        j : 0.0219495 0.0219495 0.0229934 0.0229934 
        k : 0.0247535 0.0247535 0.0239351 0.0239351 
    Block 96 cell size :
        i : 1
        j : 0.02256 0.02256 0.0222271 0.0222271 
        k : 0.0237811 0.0237811 0.024666 0.024666 
    Block 97 cell size :
        i : 1
        j : 0.022346 0.022346 0.0221974 0.0221974 
        k : 0.0233197 0.0233197 0.0240419 0.0240419 
    Block 98 cell size :
        i : 1
        j : 0.0226123 0.0226123 0.0218939 0.0218939 
        k : 0.0224892 0.0224892 0.025855 0.025855 
    Block 99 cell size :
        i : 1
        j : 0.0216588 0.0216588 0.0218018 0.0218018 
        k : 0.0197822 0.0197822 0.0211069 0.0211069 
    Block 100 cell size :
        i : 1
        j : 0.0218018 0.0218018 0.025855 0.025855 
        k : 0.0221053 0.0221053 0.0215548 0.0215548 
    Block 101 cell size :
        i : 1
        j : 0.0210973 0.0210973 0.0203433 0.0203433 
        k : 0.018969 0.018969 0.0207283 0.0207283 
    Block 102 cell size :
        i : 1
        j : 0.0206739 0.0206739 0.0192703 0.0192703 
        k : 0.0166915 0.0166915 0.0191232 0.0191232 
    Block 103 cell size :
        i : 1
        j : 0.017837 0.017837 0.0166439 0.0166439 
        k : 0.014201 0.014201 0.0186014 0.0186014 
    Block 104 cell size :
        i : 1
        j : 0.0127598 0.0127598 0.0144241 0.0144241 
        k : 0.0123132 0.0123132 0.0119927 0.0119927 
    Block 105 cell size :
        i : 1
        j : 0.0118443 0.0118443 0.0124172 0.0124172 
        k : 0.0123606 0.0123606 0.0119146 0.0119146 
    Block 106 cell size :
        i : 1
        j : 0.0119761 0.0119761 0.0120779 0.0120779 
        k : 0.0125777 0.0125777 0.0128974 0.0128974 
    Block 107 cell size :
        i : 1
        j : 0.0235619 0.0235619 0.023899 0.023899 
        k : 0.0220974 0.0220974 0.0222705 0.0222705 
    Block 108 cell size :
        i : 1
        j : 0.023704 0.023704 0.0237362 0.0237362 
        k : 0.0218939 0.0218939 0.0220974 0.0220974 
    Block 109 cell size :
        i : 1
        j : 0.0238752 0.0238752 0.0242113 0.0242113 
        k : 0.0225334 0.0225334 0.0225163 0.0225163 
    Block 110 cell size :
        i : 1
        j : 0.0241029 0.0241029 0.0242902 0.0242902 
        k : 0.0226677 0.0226677 0.022494 0.022494 
    Block 111 cell size :
        i : 1
        j : 0.0120949 0.0120949 0.0127194 0.0127194 
        k : 0.0135913 0.0135913 0.0133833 0.0133833 
    Block 112 cell size :
        i : 1
        j : 0.0128631 0.0128631 0.0146825 0.0146825 
        k : 0.0145893 0.0145893 0.0150062 0.0150062 
    Block 113 cell size :
        i : 1
        j : 0.0182875 0.0182875 0.020532 0.020532 
        k : 0.0212912 0.0212912 0.0212137 0.0212137 
    Block 114 cell size :
        i : 1
        j : 0.0161901 0.0161901 0.0182875 0.0182875 
        k : 0.0190686 0.0190686 0.0192053 0.0192053 
    Block 115 cell size :
        i : 1
        j : 0.0142744 0.0142744 0.0164986 0.0164986 
        k : 0.0166087 0.0166087 0.0170592 0.0170592 
    Block 116 cell size :
        i : 1
        j : 0.020456 0.020456 0.0219495 0.0219495 
        k : 0.0231019 0.0231019 0.0228781 0.0228781 
    Block 117 cell size :
        i : 1
        j : 0.0215802 0.0215802 0.0222271 0.0222271 
        k : 0.0239351 0.0239351 0.0234142 0.0234142 
    Block 118 cell size :
        i : 1
        j : 0.0221974 0.0221974 0.0218688 0.0218688 
        k : 0.0231411 0.0231411 0.0237811 0.0237811 
    Block 119 cell size :
        i : 1
        j : 0.022344 0.022344 0.022054 0.022054 
        k : 0.0228288 0.0228288 0.0233197 0.0233197 
    Block 120 cell size :
        i : 1
        j : 0.0224892 0.0224892 0.0230524 0.0230524 
        k : 0.020332 0.020332 0.0221358 0.0221358 
    Block 121 cell size :
        i : 1
        j : 0.0209931 0.0209931 0.0194903 0.0194903 
        k : 0.0158009 0.0158009 0.0226123 0.0226123 
    Block 122 cell size :
        i : 1
        j : 0.0163813 0.0163813 0.014128 0.014128 
        k : 0.012237 0.012237 0.0209931 0.0209931 
    Block 123 cell size :
        i : 1
        j : 0.012555 0.012555 0.0221053 0.0221053 
        k : 0.0163813 0.0163813 0.0189754 0.0189754 
    Block 124 cell size :
        i : 1
        j : 0.0203433 0.0203433 0.0189754 0.0189754 
        k : 0.0176845 0.0176845 0.0197822 0.0197822 
    Block 125 cell size :
        i : 1
        j : 0.0192703 0.0192703 0.0192917 0.0192917 
        k : 0.0173644 0.0173644 0.018969 0.018969 
    Block 126 cell size :
        i : 1
        j : 0.0166439 0.0166439 0.0171259 0.0171259 
        k : 0.0149789 0.0149789 0.0166915 0.0166915 
    Block 127 cell size :
        i : 1
        j : 0.0144241 0.0144241 0.0150482 0.0150482 
        k : 0.0130269 0.0130269 0.014201 0.014201 
    Block 128 cell size :
        i : 1
        j : 0.0124172 0.0124172 0.0131778 0.0131778 
        k : 0.0123833 0.0123833 0.0123132 0.0123132 
    Block 129 cell size :
        i : 1
        j : 0.0119761 0.0119761 0.0122129 0.0122129 
        k : 0.0125521 0.0125521 0.0123606 0.0123606 
    Block 130 cell size :
        i : 1
        j : 0.0119098 0.0119098 0.0120949 0.0120949 
        k : 0.0128974 0.0128974 0.0128302 0.0128302 
    Block 131 cell size :
        i : 1
        j : 0.0119192 0.0119192 0.0117589 0.0117589 
        k : 0.0127139 0.0127139 0.0133833 0.0133833 
    Block 132 cell size :
        i : 1
        j : 0.023899 0.023899 0.024417 0.024417 
        k : 0.0224938 0.0224938 0.0225334 0.0225334 
    Block 133 cell size :
        i : 1
        j : 0.0237362 0.0237362 0.0244283 0.0244283 
        k : 0.0221358 0.0221358 0.0224938 0.0224938 
    Block 134 cell size :
        i : 1
        j : 0.0242113 0.0242113 0.0245306 0.0245306 
        k : 0.0228975 0.0228975 0.0226677 0.0226677 
    Block 135 cell size :
        i : 1
        j : 0.0242775 0.0242775 0.0242902 0.0242902 
        k : 0.022494 0.022494 0.022754 0.022754 
    Block 136 cell size :
        i : 1
        j : 0.0109622 0.0109622 0.0119192 0.0119192 
        k : 0.0126829 0.0126829 0.0141078 0.0141078 
    Block 137 cell size :
        i : 1
        j : 0.0127194 0.0127194 0.0142074 0.0142074 
        k : 0.0150062 0.0150062 0.0141078 0.0141078 
    Block 138 cell size :
        i : 1
        j : 0.0146825 0.0146825 0.017357 0.017357 
        k : 0.0170592 0.0170592 0.0174142 0.0174142 
    Block 139 cell size :
        i : 1
        j : 0.0186419 0.0186419 0.020456 0.020456 
        k : 0.0212137 0.0212137 0.0214565 0.0214565 
    Block 140 cell size :
        i : 1
        j : 0.0164986 0.0164986 0.0186419 0.0186419 
        k : 0.0192053 0.0192053 0.0194479 0.0194479 
    Block 141 cell size :
        i : 1
        j : 0.0208006 0.0208006 0.0215802 0.0215802 
        k : 0.0228781 0.0228781 0.0230601 0.0230601 
    Block 142 cell size :
        i : 1
        j : 0.0218688 0.0218688 0.0214364 0.0214364 
        k : 0.0229593 0.0229593 0.0234142 0.0234142 
    Block 143 cell size :
        i : 1
        j : 0.022054 0.022054 0.0216958 0.0216958 
        k : 0.0226763 0.0226763 0.0231411 0.0231411 
    Block 144 cell size :
        i : 1
        j : 0.0220166 0.0220166 0.022344 0.022344 
        k : 0.0228288 0.0228288 0.0225415 0.0225415 
    Block 145 cell size :
        i : 1
        j : 0.0230524 0.0230524 0.0291268 0.0291268 
        k : 0.0240724 0.0240724 0.0235087 0.0235087 
    Block 146 cell size :
        i : 1
        j : 0.016639 0.016639 0.020332 0.020332 
        k : 0.0170538 0.0170538 0.0194903 0.0194903 
    Block 147 cell size :
        i : 1
        j : 0.0152831 0.0152831 0.0159535 0.0159535 
        k : 0.0132504 0.0132504 0.0158009 0.0158009 
    Block 148 cell size :
        i : 1
        j : 0.0133395 0.0133395 0.0152831 0.0152831 
        k : 0.0122105 0.0122105 0.014128 0.014128 
    Block 149 cell size :
        i : 1
        j : 0.012237 0.012237 0.0198869 0.0198869 
        k : 0.012555 0.012555 0.0159794 0.0159794 
    Block 150 cell size :
        i : 1
        j : 0.0132513 0.0132513 0.0133395 0.0133395 
        k : 0.00817999 0.00817999 0.0159794 0.0159794 
    Block 151 cell size :
        i : 1
        j : 0.0198869 0.0198869 0.0192917 0.0192917 
        k : 0.0176845 0.0176845 0.0190209 0.0190209 
    Block 152 cell size :
        i : 1
        j : 0.0171259 0.0171259 0.0178721 0.0178721 
        k : 0.0156538 0.0156538 0.0173644 0.0173644 
    Block 153 cell size :
        i : 1
        j : 0.0150482 0.0150482 0.0154626 0.0154626 
        k : 0.0135134 0.0135134 0.0149789 0.0149789 
    Block 154 cell size :
        i : 1
        j : 0.0131778 0.0131778 0.013779 0.013779 
        k : 0.0125524 0.0125524 0.0130269 0.0130269 
    Block 155 cell size :
        i : 1
        j : 0.0122129 0.0122129 0.0125971 0.0125971 
        k : 0.0123711 0.0123711 0.0123833 0.0123833 
    Block 156 cell size :
        i : 1
        j : 0.0119098 0.0119098 0.0119583 0.0119583 
        k : 0.0125032 0.0125032 0.0125521 0.0125521 
    Block 157 cell size :
        i : 1
        j : 0.0117589 0.0117589 0.0116549 0.0116549 
        k : 0.0125685 0.0125685 0.0128302 0.0128302 
    Block 158 cell size :
        i : 1
        j : 0.0113413 0.0113413 0.0113575 0.0113575 
        k : 0.0122742 0.0122742 0.0127139 0.0127139 
    Block 159 cell size :
        i : 1
        j : 0.0117934 0.0117934 0.0113413 0.0113413 
        k : 0.01208 0.01208 0.0126829 0.0126829 
    Block 160 cell size :
        i : 1
        j : 0.024417 0.024417 0.0250842 0.0250842 
        k : 0.0231963 0.0231963 0.0228975 0.0228975 
    Block 161 cell size :
        i : 1
        j : 0.0244283 0.0244283 0.0261022 0.0261022 
        k : 0.0235087 0.0235087 0.0231963 0.0231963 
    Block 162 cell size :
        i : 1
        j : 0.0246231 0.0246231 0.0245306 0.0245306 
        k : 0.022754 0.022754 0.0231681 0.0231681 
    Block 163 cell size :
        i : 1
        j : 0.0239975 0.0239975 0.0242775 0.0242775 
        k : 0.022494 0.022494 0.0227238 0.0227238 
    Block 164 cell size :
        i : 1
        j : 0.0133666 0.0133666 0.0109622 0.0109622 
        k : 0.00969207 0.00969207 0.0166591 0.0166591 
    Block 165 cell size :
        i : 1
        j : 0.0142074 0.0142074 0.0191453 0.0191453 
        k : 0.0174142 0.0174142 0.0166591 0.0166591 
    Block 166 cell size :
        i : 1
        j : 0.0196747 0.0196747 0.0208006 0.0208006 
        k : 0.0214565 0.0214565 0.0224981 0.0224981 
    Block 167 cell size :
        i : 1
        j : 0.017357 0.017357 0.0196747 0.0196747 
        k : 0.0194479 0.0194479 0.0205322 0.0205322 
    Block 168 cell size :
        i : 1
        j : 0.021286 0.021286 0.0214364 0.0214364 
        k : 0.0230601 0.0230601 0.0231409 0.0231409 
    Block 169 cell size :
        i : 1
        j : 0.0216958 0.0216958 0.0212968 0.0212968 
        k : 0.0225236 0.0225236 0.0229593 0.0229593 
    Block 170 cell size :
        i : 1
        j : 0.0216155 0.0216155 0.0220166 0.0220166 
        k : 0.0226763 0.0226763 0.0223831 0.0223831 
    Block 171 cell size :
        i : 1
        j : 0.0220521 0.0220521 0.022344 0.022344 
        k : 0.0225415 0.0225415 0.0224459 0.0224459 
    Block 172 cell size :
        i : 1
        j : 0.0298118 0.0298118 0.0291268 0.0291268 
        k : 0.025096 0.025096 0.0287265 0.0287265 
    Block 173 cell size :
        i : 1
        j : 0.0106264 0.0106264 0.0240724 0.0240724 
        k : 0.0190125 0.0190125 0.0170538 0.0170538 
    Block 174 cell size :
        i : 1
        j : 0.0159535 0.0159535 0.017289 0.017289 
        k : 0.0139111 0.0139111 0.016639 0.016639 
    Block 175 cell size :
        i : 1
        j : 0.0134547 0.0134547 0.0140322 0.0140322 
        k : 0.0117788 0.0117788 0.0132504 0.0132504 
    Block 176 cell size :
        i : 1
        j : 0.0119971 0.0119971 0.0134547 0.0134547 
        k : 0.0111429 0.0111429 0.0122105 0.0122105 
    Block 177 cell size :
        i : 1
        j : 0.00817999 0.00817999 0.0104544 0.0104544 
        k : 0.00998728 0.00998728 0.0119971 0.0119971 
    Block 178 cell size :
        i : 1
        j : 0.0178721 0.0178721 0.0198197 0.0198197 
        k : 0.017255 0.017255 0.0190209 0.0190209 
    Block 179 cell size :
        i : 1
        j : 0.0120236 0.0120236 0.0111161 0.0111161 
        k : 0.00655412 0.00655412 0.0124329 0.0124329 
    Block 180 cell size :
        i : 1
        j : 0.00998728 0.00998728 0.0198197 0.0198197 
        k : 0.0132513 0.0132513 0.0124329 0.0124329 
    Block 181 cell size :
        i : 1
        j : 0.0154626 0.0154626 0.0156263 0.0156263 
        k : 0.0136837 0.0136837 0.0156538 0.0156538 
    Block 182 cell size :
        i : 1
        j : 0.013779 0.013779 0.0140435 0.0140435 
        k : 0.0125951 0.0125951 0.0135134 0.0135134 
    Block 183 cell size :
        i : 1
        j : 0.0125971 0.0125971 0.0129289 0.0129289 
        k : 0.0122682 0.0122682 0.0125524 0.0125524 
    Block 184 cell size :
        i : 1
        j : 0.00969207 0.00969207 0.01326 0.01326 
        k : 0.00845463 0.00845463 0.0117934 0.0117934 
    Block 185 cell size :
        i : 1
        j : 0.00845463 0.00845463 0.0142633 0.0142633 
        k : 0.0133666 0.0133666 0.0113128 0.0113128 
    Block 186 cell size :
        i : 1
        j : 0.0119583 0.0119583 0.0121312 0.0121312 
        k : 0.0122918 0.0122918 0.0123711 0.0123711 
    Block 187 cell size :
        i : 1
        j : 0.0116549 0.0116549 0.0116512 0.0116512 
        k : 0.0123498 0.0123498 0.0125032 0.0125032 
    Block 188 cell size :
        i : 1
        j : 0.0113575 0.0113575 0.0112914 0.0112914 
        k : 0.0122267 0.0122267 0.0125685 0.0125685 
    Block 189 cell size :
        i : 1
        j : 0.0111147 0.0111147 0.0110007 0.0110007 
        k : 0.0119378 0.0119378 0.0122742 0.0122742 
    Block 190 cell size :
        i : 1
        j : 0.0111147 0.0111147 0.0111748 0.0111748 
        k : 0.01208 0.01208 0.0121385 0.0121385 
    Block 191 cell size :
        i : 1
        j : 0.0254944 0.0254944 0.0250842 0.0250842 
        k : 0.0231681 0.0231681 0.0239503 0.0239503 
    Block 192 cell size :
        i : 1
        j : 0.0268809 0.0268809 0.0261022 0.0261022 
        k : 0.0239503 0.0239503 0.025096 0.025096 
    Block 193 cell size :
        i : 1
        j : 0.0242448 0.0242448 0.0246231 0.0246231 
        k : 0.0227238 0.0227238 0.0230621 0.0230621 
    Block 194 cell size :
        i : 1
        j : 0.0235343 0.0235343 0.0239975 0.0239975 
        k : 0.022494 0.022494 0.0226139 0.0226139 
    Block 195 cell size :
        i : 1
        j : 0.0228419 0.0228419 0.021286 0.021286 
        k : 0.0224981 0.0224981 0.0262184 0.0262184 
    Block 196 cell size :
        i : 1
        j : 0.0161124 0.0161124 0.0142633 0.0142633 
        k : 0.0113502 0.0113502 0.0238186 0.0238186 
    Block 197 cell size :
        i : 1
        j : 0.0191453 0.0191453 0.0228419 0.0228419 
        k : 0.0205322 0.0205322 0.0238186 0.0238186 
    Block 198 cell size :
        i : 1
        j : 0.0212968 0.0212968 0.0207987 0.0207987 
        k : 0.0221075 0.0221075 0.0231409 0.0231409 
    Block 199 cell size :
        i : 1
        j : 0.0210821 0.0210821 0.0216155 0.0216155 
        k : 0.0225236 0.0225236 0.0222169 0.0222169 
    Block 200 cell size :
        i : 1
        j : 0.0217262 0.0217262 0.0220521 0.0220521 
        k : 0.0223831 0.0223831 0.022344 0.022344 
    Block 201 cell size :
        i : 1
        j : 0.0221281 0.0221281 0.022344 0.022344 
        k : 0.0224459 0.0224459 0.0224998 0.0224998 
    Block 202 cell size :
        i : 1
        j : 0.0228369 0.0228369 0.0278661 0.0278661 
        k : 0.0245593 0.0245593 0.0298118 0.0298118 
    Block 203 cell size :
        i : 1
        j : 0.0150965 0.0150965 0.0212331 0.0212331 
        k : 0.0138666 0.0138666 0.0245593 0.0245593 
    Block 204 cell size :
        i : 1
        j : 0.0158027 0.0158027 0.0287265 0.0287265 
        k : 0.0222354 0.0222354 0.0233928 0.0233928 
    Block 205 cell size :
        i : 1
        j : 0.0190125 0.0190125 0.0183137 0.0183137 
        k : 0.0167735 0.0167735 0.0233928 0.0233928 
    Block 206 cell size :
        i : 1
        j : 0.0167735 0.0167735 0.017289 0.017289 
        k : 0.0106264 0.0106264 0.0147631 0.0147631 
    Block 207 cell size :
        i : 1
        j : 0.0140322 0.0140322 0.0139253 0.0139253 
        k : 0.0120246 0.0120246 0.0139111 0.0139111 
    Block 208 cell size :
        i : 1
        j : 0.012502 0.012502 0.0128481 0.0128481 
        k : 0.0109077 0.0109077 0.0117788 0.0117788 
    Block 209 cell size :
        i : 1
        j : 0.0116972 0.0116972 0.012502 0.012502 
        k : 0.0105923 0.0105923 0.0111429 0.0111429 
    Block 210 cell size :
        i : 1
        j : 0.0111161 0.0111161 0.0116972 0.0116972 
        k : 0.00993197 0.00993197 0.0104544 0.0104544 
    Block 211 cell size :
        i : 1
        j : 0.00655412 0.00655412 0.0109523 0.0109523 
        k : 0.00915585 0.00915585 0.0107828 0.0107828 
    Block 212 cell size :
        i : 1
        j : 0.0128075 0.0128075 0.017255 0.017255 
        k : 0.0159944 0.0159944 0.0156263 0.0156263 
    Block 213 cell size :
        i : 1
        j : 0.00915585 0.00915585 0.0159944 0.0159944 
        k : 0.0120236 0.0120236 0.00951122 0.00951122 
    Block 214 cell size :
        i : 1
        j : 0.0140435 0.0140435 0.0138903 0.0138903 
        k : 0.0124446 0.0124446 0.0136837 0.0136837 
    Block 215 cell size :
        i : 1
        j : 0.0129289 0.0129289 0.0130708 0.0130708 
        k : 0.0120706 0.0120706 0.0125951 0.0125951 
    Block 216 cell size :
        i : 1
        j : 0.0121312 0.0121312 0.0123406 0.0123406 
        k : 0.0121264 0.0121264 0.0122682 0.0122682 
    Block 217 cell size :
        i : 1
        j : 0.0113502 0.0113502 0.0155628 0.0155628 
        k : 0.011305 0.011305 0.014054 0.014054 
    Block 218 cell size :
        i : 1
        j : 0.0117288 0.0117288 0.0111748 0.0111748 
        k : 0.0125189 0.0125189 0.01326 0.01326 
    Block 219 cell size :
        i : 1
        j : 0.0117288 0.0117288 0.014054 0.014054 
        k : 0.0113128 0.0113128 0.0132435 0.0132435 
    Block 220 cell size :
        i : 1
        j : 0.0116512 0.0116512 0.0117368 0.0117368 
        k : 0.0121851 0.0121851 0.0122918 0.0122918 
    Block 221 cell size :
        i : 1
        j : 0.0112914 0.0112914 0.0112713 0.0112713 
        k : 0.0121286 0.0121286 0.0123498 0.0123498 
    Block 222 cell size :
        i : 1
        j : 0.0110007 0.0110007 0.0109159 0.0109159 
        k : 0.011861 0.011861 0.0122267 0.0122267 
    Block 223 cell size :
        i : 1
        j : 0.0109215 0.0109215 0.0106119 0.0106119 
        k : 0.0114587 0.0114587 0.0119378 0.0119378 
    Block 224 cell size :
        i : 1
        j : 0.0109215 0.0109215 0.0115578 0.0115578 
        k : 0.0121385 0.0121385 0.0119617 0.0119617 
    Block 225 cell size :
        i : 1
        j : 0.0251143 0.0251143 0.0254944 0.0254944 
        k : 0.0230621 0.0230621 0.023988 0.023988 
    Block 226 cell size :
        i : 1
        j : 0.0288818 0.0288818 0.0268809 0.0268809 
        k : 0.023988 0.023988 0.0278661 0.0278661 
    Block 227 cell size :
        i : 1
        j : 0.0122651 0.0122651 0.0234515 0.0234515 
        k : 0.0147251 0.0147251 0.0212331 0.0212331 
    Block 228 cell size :
        i : 1
        j : 0.0235669 0.0235669 0.0242448 0.0242448 
        k : 0.0226139 0.0226139 0.0227363 0.0227363 
    Block 229 cell size :
        i : 1
        j : 0.0230578 0.0230578 0.0235343 0.0235343 
        k : 0.022494 0.022494 0.0225181 0.0225181 
    Block 230 cell size :
        i : 1
        j : 0.0205917 0.0205917 0.0262184 0.0262184 
        k : 0.0214141 0.0214141 0.0207987 0.0207987 
    Block 231 cell size :
        i : 1
        j : 0.011305 0.011305 0.0214141 0.0214141 
        k : 0.0161124 0.0161124 0.0149843 0.0149843 
    Block 232 cell size :
        i : 1
        j : 0.0201749 0.0201749 0.0210821 0.0210821 
        k : 0.0221075 0.0221075 0.0215768 0.0215768 
    Block 233 cell size :
        i : 1
        j : 0.0212461 0.0212461 0.0217262 0.0217262 
        k : 0.0222169 0.0222169 0.0222339 0.0222339 
    Block 234 cell size :
        i : 1
        j : 0.0218947 0.0218947 0.0221281 0.0221281 
        k : 0.022344 0.022344 0.0224456 0.0224456 
    Block 235 cell size :
        i : 1
        j : 0.0222216 0.0222216 0.022344 0.022344 
        k : 0.0224998 0.0224998 0.0226524 0.0226524 
    Block 236 cell size :
        i : 1
        j : 0.0165494 0.0165494 0.0137006 0.0137006 
        k : 0.0122651 0.0122651 0.0196243 0.0196243 
    Block 237 cell size :
        i : 1
        j : 0.00922879 0.00922879 0.0137006 0.0137006 
        k : 0.009456 0.009456 0.0138666 0.0138666 
    Block 238 cell size :
        i : 1
        j : 0.0131706 0.0131706 0.0228369 0.0228369 
        k : 0.0166408 0.0166408 0.0205684 0.0205684 
    Block 239 cell size :
        i : 1
        j : 0.0122764 0.0122764 0.0150965 0.0150965 
        k : 0.0126345 0.0126345 0.0166408 0.0166408 
    Block 240 cell size :
        i : 1
        j : 0.00895564 0.00895564 0.0126345 0.0126345 
        k : 0.00922879 0.00922879 0.0112008 0.0112008 
    Block 241 cell size :
        i : 1
        j : 0.012042 0.012042 0.0222354 0.0222354 
        k : 0.0205684 0.0205684 0.0130113 0.0130113 
    Block 242 cell size :
        i : 1
        j : 0.0158749 0.0158749 0.0149666 0.0149666 
        k : 0.0120563 0.0120563 0.0158027 0.0158027 
    Block 243 cell size :
        i : 1
        j : 0.0151524 0.0151524 0.0158749 0.0158749 
        k : 0.0103758 0.0103758 0.0183137 0.0183137 
    Block 244 cell size :
        i : 1
        j : 0.00776968 0.00776968 0.0151524 0.0151524 
        k : 0.00890915 0.00890915 0.0140234 0.0140234 
    Block 245 cell size :
        i : 1
        j : 0.0139253 0.0139253 0.0140234 0.0140234 
        k : 0.0112415 0.0112415 0.0147631 0.0147631 
    Block 246 cell size :
        i : 1
        j : 0.0128481 0.0128481 0.0124508 0.0124508 
        k : 0.0108689 0.0108689 0.0120246 0.0120246 
    Block 247 cell size :
        i : 1
        j : 0.012022 0.012022 0.0121683 0.0121683 
        k : 0.0104711 0.0104711 0.0109077 0.0109077 
    Block 248 cell size :
        i : 1
        j : 0.0115607 0.0115607 0.012022 0.012022 
        k : 0.0102747 0.0102747 0.0105923 0.0105923 
    Block 249 cell size :
        i : 1
        j : 0.0107828 0.0107828 0.0115607 0.0115607 
        k : 0.00986601 0.00986601 0.00993197 0.00993197 
    Block 250 cell size :
        i : 1
        j : 0.0112685 0.0112685 0.0119346 0.0119346 
        k : 0.0109523 0.0109523 0.010298 0.010298 
    Block 251 cell size :
        i : 1
        j : 0.0119346 0.0119346 0.0130266 0.0130266 
        k : 0.00951122 0.00951122 0.0110212 0.0110212 
    Block 252 cell size :
        i : 1
        j : 0.0138903 0.0138903 0.0130266 0.0130266 
        k : 0.0117864 0.0117864 0.0128075 0.0128075 
    Block 253 cell size :
        i : 1
        j : 0.0130708 0.0130708 0.0129175 0.0129175 
        k : 0.0118052 0.0118052 0.0124446 0.0124446 
    Block 254 cell size :
        i : 1
        j : 0.0123406 0.0123406 0.0124722 0.0124722 
        k : 0.0118231 0.0118231 0.0120706 0.0120706 
    Block 255 cell size :
        i : 1
        j : 0.0117368 0.0117368 0.0119258 0.0119258 
        k : 0.0121224 0.0121224 0.0121264 0.0121264 
    Block 256 cell size :
        i : 1
        j : 0.0134252 0.0134252 0.0154107 0.0154107 
        k : 0.0155628 0.0155628 0.015529 0.015529 
    Block 257 cell size :
        i : 1
        j : 0.0115578 0.0115578 0.0123476 0.0123476 
        k : 0.0125189 0.0125189 0.0129406 0.0129406 
    Block 258 cell size :
        i : 1
        j : 0.0123476 0.0123476 0.0134252 0.0134252 
        k : 0.0132435 0.0132435 0.0140819 0.0140819 
    Block 259 cell size :
        i : 1
        j : 0.0112713 0.0112713 0.011327 0.011327 
        k : 0.0120824 0.0120824 0.0121851 0.0121851 
    Block 260 cell size :
        i : 1
        j : 0.0109159 0.0109159 0.0108809 0.0108809 
        k : 0.0118518 0.0118518 0.0121286 0.0121286 
    Block 261 cell size :
        i : 1
        j : 0.0106119 0.0106119 0.0105532 0.0105532 
        k : 0.0114307 0.0114307 0.011861 0.011861 
    Block 262 cell size :
        i : 1
        j : 0.0103756 0.0103756 0.00998898 0.00998898 
        k : 0.0103748 0.0103748 0.0114587 0.0114587 
    Block 263 cell size :
        i : 1
        j : 0.0103756 0.0103756 0.0119165 0.0119165 
        k : 0.0119617 0.0119617 0.0111836 0.0111836 
    Block 264 cell size :
        i : 1
        j : 0.0228177 0.0228177 0.0227363 0.0227363 
        k : 0.02354 0.02354 0.0251143 0.0251143 
    Block 265 cell size :
        i : 1
        j : 0.0234515 0.0234515 0.0228177 0.0228177 
        k : 0.0222769 0.0222769 0.0288818 0.0288818 
    Block 266 cell size :
        i : 1
        j : 0.0147251 0.0147251 0.0208994 0.0208994 
        k : 0.0165494 0.0165494 0.0197037 0.0197037 
    Block 267 cell size :
        i : 1
        j : 0.0229627 0.0229627 0.0235669 0.0235669 
        k : 0.0225181 0.0225181 0.0224259 0.0224259 
    Block 268 cell size :
        i : 1
        j : 0.0226762 0.0226762 0.0230578 0.0230578 
        k : 0.022494 0.022494 0.0225153 0.0225153 
    Block 269 cell size :
        i : 1
        j : 0.022061 0.022061 0.0195276 0.0195276 
        k : 0.0170648 0.0170648 0.0225272 0.0225272 
    Block 270 cell size :
        i : 1
        j : 0.022232 0.022232 0.022345 0.022345 
        k : 0.023221 0.023221 0.0232168 0.0232168 
    Block 271 cell size :
        i : 1
        j : 0.0154107 0.0154107 0.0181274 0.0181274 
        k : 0.0149843 0.0149843 0.0176631 0.0176631 
    Block 272 cell size :
        i : 1
        j : 0.0181274 0.0181274 0.0201749 0.0201749 
        k : 0.0205917 0.0205917 0.0200514 0.0200514 
    Block 273 cell size :
        i : 1
        j : 0.0205753 0.0205753 0.0212461 0.0212461 
        k : 0.0215768 0.0215768 0.0220231 0.0220231 
    Block 274 cell size :
        i : 1
        j : 0.0216275 0.0216275 0.0218947 0.0218947 
        k : 0.0222339 0.0222339 0.0224387 0.0224387 
    Block 275 cell size :
        i : 1
        j : 0.0220836 0.0220836 0.0222216 0.0222216 
        k : 0.0224456 0.0224456 0.0226241 0.0226241 
    Block 276 cell size :
        i : 1
        j : 0.02232 0.02232 0.022345 0.022345 
        k : 0.0226524 0.0226524 0.0228655 0.0228655 
    Block 277 cell size :
        i : 1
        j : 0.009456 0.009456 0.0113534 0.0113534 
        k : 0.00895564 0.00895564 0.0126162 0.0126162 
    Block 278 cell size :
        i : 1
        j : 0.0196243 0.0196243 0.0145508 0.0145508 
        k : 0.0126162 0.0126162 0.022061 0.022061 
    Block 279 cell size :
        i : 1
        j : 0.0122242 0.0122242 0.0133328 0.0133328 
        k : 0.0101553 0.0101553 0.0131706 0.0131706 
    Block 280 cell size :
        i : 1
        j : 0.0109692 0.0109692 0.0122764 0.0122764 
        k : 0.0127811 0.0127811 0.0133328 0.0133328 
    Block 281 cell size :
        i : 1
        j : 0.0121434 0.0121434 0.0127811 0.0127811 
        k : 0.0112008 0.0112008 0.0113195 0.0113195 
    Block 282 cell size :
        i : 1
        j : 0.00796469 0.00796469 0.0122242 0.0122242 
        k : 0.00706869 0.00706869 0.012042 0.012042 
    Block 283 cell size :
        i : 1
        j : 0.0114202 0.0114202 0.0149666 0.0149666 
        k : 0.0130113 0.0130113 0.0108923 0.0108923 
    Block 284 cell size :
        i : 1
        j : 0.013025 0.013025 0.0128178 0.0128178 
        k : 0.010585 0.010585 0.0120563 0.0120563 
    Block 285 cell size :
        i : 1
        j : 0.00890915 0.00890915 0.00898111 0.00898111 
        k : 0.00817574 0.00817574 0.0124701 0.0124701 
    Block 286 cell size :
        i : 1
        j : 0.0124701 0.0124701 0.013025 0.013025 
        k : 0.0100256 0.0100256 0.0103758 0.0103758 
    Block 287 cell size :
        i : 1
        j : 0.00817574 0.00817574 0.0111319 0.0111319 
        k : 0.00776968 0.00776968 0.00902312 0.00902312 
    Block 288 cell size :
        i : 1
        j : 0.0111319 0.0111319 0.0124508 0.0124508 
        k : 0.0112415 0.0112415 0.010121 0.010121 
    Block 289 cell size :
        i : 1
        j : 0.0121683 0.0121683 0.0119468 0.0119468 
        k : 0.0104011 0.0104011 0.0108689 0.0108689 
    Block 290 cell size :
        i : 1
        j : 0.0117593 0.0117593 0.0118346 0.0118346 
        k : 0.0102857 0.0102857 0.0104711 0.0104711 
    Block 291 cell size :
        i : 1
        j : 0.0115495 0.0115495 0.0117593 0.0117593 
        k : 0.0102104 0.0102104 0.0102747 0.0102747 
    Block 292 cell size :
        i : 1
        j : 0.0112685 0.0112685 0.0115495 0.0115495 
        k : 0.010132 0.010132 0.00986601 0.00986601 
    Block 293 cell size :
        i : 1
        j : 0.0116062 0.0116062 0.0118833 0.0118833 
        k : 0.010298 0.010298 0.0104678 0.0104678 
    Block 294 cell size :
        i : 1
        j : 0.0118833 0.0118833 0.0126111 0.0126111 
        k : 0.0110212 0.0110212 0.0108139 0.0108139 
    Block 295 cell size :
        i : 1
        j : 0.0129175 0.0129175 0.0126111 0.0126111 
        k : 0.0114307 0.0114307 0.0117864 0.0117864 
    Block 296 cell size :
        i : 1
        j : 0.0124722 0.0124722 0.0123983 0.0123983 
        k : 0.0114315 0.0114315 0.0118052 0.0118052 
    Block 297 cell size :
        i : 1
        j : 0.0119258 0.0119258 0.0121771 0.0121771 
        k : 0.0118685 0.0118685 0.0118231 0.0118231 
    Block 298 cell size :
        i : 1
        j : 0.011327 0.011327 0.0115055 0.0115055 
        k : 0.0122179 0.0122179 0.0121224 0.0121224 
    Block 299 cell size :
        i : 1
        j : 0.0144312 0.0144312 0.0165117 0.0165117 
        k : 0.015529 0.015529 0.0163887 0.0163887 
    Block 300 cell size :
        i : 1
        j : 0.0119165 0.0119165 0.0131347 0.0131347 
        k : 0.0129406 0.0129406 0.0134005 0.0134005 
    Block 301 cell size :
        i : 1
        j : 0.0131347 0.0131347 0.0144312 0.0144312 
        k : 0.0140819 0.0140819 0.0148082 0.0148082 
    Block 302 cell size :
        i : 1
        j : 0.0108809 0.0108809 0.0108689 0.0108689 
        k : 0.0119033 0.0119033 0.0120824 0.0120824 
    Block 303 cell size :
        i : 1
        j : 0.0105532 0.0105532 0.0105639 0.0105639 
        k : 0.0115497 0.0115497 0.0118518 0.0118518 
    Block 304 cell size :
        i : 1
        j : 0.00998898 0.00998898 0.0101524 0.0101524 
        k : 0.0108997 0.0108997 0.0114307 0.0114307 
    Block 305 cell size :
        i : 1
        j : 0.00699203 0.00699203 0.00923082 0.00923082 
        k : 0.00857312 0.00857312 0.0103748 0.0103748 
    Block 306 cell size :
        i : 1
        j : 0.010402 0.010402 0.0111836 0.0111836 
        k : 0.00699203 0.00699203 0.0132088 0.0132088 
    Block 307 cell size :
        i : 1
        j : 0.022344 0.022344 0.0222602 0.0222602 
        k : 0.0231318 0.0231318 0.0232168 0.0232168 
    Block 308 cell size :
        i : 1
        j : 0.0220281 0.0220281 0.0224259 0.0224259 
        k : 0.022782 0.022782 0.02354 0.02354 
    Block 309 cell size :
        i : 1
        j : 0.0222769 0.0222769 0.0220163 0.0220163 
        k : 0.0197037 0.0197037 0.0220281 0.0220281 
    Block 310 cell size :
        i : 1
        j : 0.0208994 0.0208994 0.0225114 0.0225114 
        k : 0.0225272 0.0225272 0.021979 0.021979 
    Block 311 cell size :
        i : 1
        j : 0.0226384 0.0226384 0.0229627 0.0229627 
        k : 0.0225153 0.0225153 0.0224891 0.0224891 
    Block 312 cell size :
        i : 1
        j : 0.0223615 0.0223615 0.0226762 0.0226762 
        k : 0.022494 0.022494 0.0225653 0.0225653 
    Block 313 cell size :
        i : 1
        j : 0.0173985 0.0173985 0.0250289 0.0250289 
        k : 0.0209972 0.0209972 0.0195276 0.0195276 
    Block 314 cell size :
        i : 1
        j : 0.0156194 0.0156194 0.0162738 0.0162738 
        k : 0.0143249 0.0143249 0.0170648 0.0170648 
    Block 315 cell size :
        i : 1
        j : 0.0220633 0.0220633 0.022232 0.022232 
        k : 0.0232025 0.0232025 0.0233227 0.0233227 
    Block 316 cell size :
        i : 1
        j : 0.022247 0.022247 0.022344 0.022344 
        k : 0.0232242 0.0232242 0.023221 0.023221 
    Block 317 cell size :
        i : 1
        j : 0.0191636 0.0191636 0.0205753 0.0205753 
        k : 0.0200514 0.0200514 0.0210959 0.0210959 
    Block 318 cell size :
        i : 1
        j : 0.0165117 0.0165117 0.0191636 0.0191636 
        k : 0.0176631 0.0176631 0.018679 0.018679 
    Block 319 cell size :
        i : 1
        j : 0.0215345 0.0215345 0.0216275 0.0216275 
        k : 0.0220231 0.0220231 0.0227185 0.0227185 
    Block 320 cell size :
        i : 1
        j : 0.0219128 0.0219128 0.0220836 0.0220836 
        k : 0.0224387 0.0224387 0.022598 0.022598 
    Block 321 cell size :
        i : 1
        j : 0.0223023 0.0223023 0.02232 0.02232 
        k : 0.0226241 0.0226241 0.0228943 0.0228943 
    Block 322 cell size :
        i : 1
        j : 0.022404 0.022404 0.022344 0.022344 
        k : 0.0228655 0.0228655 0.0230793 0.0230793 
    Block 323 cell size :
        i : 1
        j : 0.0113534 0.0113534 0.0119415 0.0119415 
        k : 0.0121434 0.0121434 0.0138749 0.0138749 
    Block 324 cell size :
        i : 1
        j : 0.0138749 0.0138749 0.0156194 0.0156194 
        k : 0.0132056 0.0132056 0.0145508 0.0145508 
    Block 325 cell size :
        i : 1
        j : 0.0101553 0.0101553 0.00961063 0.00961063 
        k : 0.0105167 0.0105167 0.0119352 0.0119352 
    Block 326 cell size :
        i : 1
        j : 0.0119352 0.0119352 0.0126302 0.0126302 
        k : 0.0104967 0.0104967 0.0109692 0.0109692 
    Block 327 cell size :
        i : 1
        j : 0.0126302 0.0126302 0.0129552 0.0129552 
        k : 0.0110656 0.0110656 0.0113195 0.0113195 
    Block 328 cell size :
        i : 1
        j : 0.00706869 0.00706869 0.00872265 0.00872265 
        k : 0.00779753 0.00779753 0.0105167 0.0105167 
    Block 329 cell size :
        i : 1
        j : 0.00779753 0.00779753 0.0114202 0.0114202 
        k : 0.00796469 0.00796469 0.00918204 0.00918204 
    Block 330 cell size :
        i : 1
        j : 0.0115785 0.0115785 0.0128178 0.0128178 
        k : 0.0108923 0.0108923 0.0103501 0.0103501 
    Block 331 cell size :
        i : 1
        j : 0.0120759 0.0120759 0.0121718 0.0121718 
        k : 0.0101371 0.0101371 0.010585 0.010585 
    Block 332 cell size :
        i : 1
        j : 0.00898111 0.00898111 0.00963858 0.00963858 
        k : 0.010698 0.010698 0.0113433 0.0113433 
    Block 333 cell size :
        i : 1
        j : 0.0113433 0.0113433 0.0120759 0.0120759 
        k : 0.00990619 0.00990619 0.0100256 0.0100256 
    Block 334 cell size :
        i : 1
        j : 0.010698 0.010698 0.011199 0.011199 
        k : 0.00902312 0.00902312 0.00967855 0.00967855 
    Block 335 cell size :
        i : 1
        j : 0.011199 0.011199 0.0119468 0.0119468 
        k : 0.010121 0.010121 0.0100476 0.0100476 
    Block 336 cell size :
        i : 1
        j : 0.0118346 0.0118346 0.0117222 0.0117222 
        k : 0.0102356 0.0102356 0.0104011 0.0104011 
    Block 337 cell size :
        i : 1
        j : 0.0116195 0.0116195 0.0116333 0.0116333 
        k : 0.0102149 0.0102149 0.0102857 0.0102857 
    Block 338 cell size :
        i : 1
        j : 0.0115787 0.0115787 0.0116195 0.0116195 
        k : 0.0102059 0.0102059 0.0102104 0.0102104 
    Block 339 cell size :
        i : 1
        j : 0.0115787 0.0115787 0.0116062 0.0116062 
        k : 0.010132 0.010132 0.0102501 0.0102501 
    Block 340 cell size :
        i : 1
        j : 0.0116452 0.0116452 0.0118714 0.0118714 
        k : 0.0104678 0.0104678 0.0104151 0.0104151 
    Block 341 cell size :
        i : 1
        j : 0.0118714 0.0118714 0.0121146 0.0121146 
        k : 0.0108139 0.0108139 0.0106651 0.0106651 
    Block 342 cell size :
        i : 1
        j : 0.0123983 0.0123983 0.0121146 0.0121146 
        k : 0.0110686 0.0110686 0.0114307 0.0114307 
    Block 343 cell size :
        i : 1
        j : 0.0121771 0.0121771 0.0121741 0.0121741 
        k : 0.0111351 0.0111351 0.0114315 0.0114315 
    Block 344 cell size :
        i : 1
        j : 0.0125456 0.0125456 0.0115055 0.0115055 
        k : 0.0118685 0.0118685 0.0131191 0.0131191 
    Block 345 cell size :
        i : 1
        j : 0.0108689 0.0108689 0.0107925 0.0107925 
        k : 0.0120587 0.0120587 0.0122179 0.0122179 
    Block 346 cell size :
        i : 1
        j : 0.0148978 0.0148978 0.0171441 0.0171441 
        k : 0.0163887 0.0163887 0.0160751 0.0160751 
    Block 347 cell size :
        i : 1
        j : 0.0132088 0.0132088 0.013756 0.013756 
        k : 0.0134005 0.0134005 0.0154805 0.0154805 
    Block 348 cell size :
        i : 1
        j : 0.013756 0.013756 0.0148978 0.0148978 
        k : 0.0148082 0.0148082 0.0150248 0.0150248 
    Block 349 cell size :
        i : 1
        j : 0.0105639 0.0105639 0.010535 0.010535 
        k : 0.0116554 0.0116554 0.0119033 0.0119033 
    Block 350 cell size :
        i : 1
        j : 0.0101524 0.0101524 0.0102689 0.0102689 
        k : 0.0112946 0.0112946 0.0115497 0.0115497 
    Block 351 cell size :
        i : 1
        j : 0.00923082 0.00923082 0.00987237 0.00987237 
        k : 0.0108166 0.0108166 0.0108997 0.0108997 
    Block 352 cell size :
        i : 1
        j : 0.00857312 0.00857312 0.0146505 0.0146505 
        k : 0.010402 0.010402 0.00960823 0.00960823 
    Block 353 cell size :
        i : 1
        j : 0.0226467 0.0226467 0.0225818 0.0225818 
        k : 0.0221211 0.0221211 0.022345 0.022345 
    Block 354 cell size :
        i : 1
        j : 0.022345 0.022345 0.0222457 0.0222457 
        k : 0.0229478 0.0229478 0.0231318 0.0231318 
    Block 355 cell size :
        i : 1
        j : 0.022344 0.022344 0.0221849 0.0221849 
        k : 0.0227445 0.0227445 0.0229478 0.0229478 
    Block 356 cell size :
        i : 1
        j : 0.0222602 0.0222602 0.0222395 0.0222395 
        k : 0.0232542 0.0232542 0.0233227 0.0233227 
    Block 357 cell size :
        i : 1
        j : 0.0221304 0.0221304 0.022345 0.022345 
        k : 0.0227445 0.0227445 0.022609 0.022609 
    Block 358 cell size :
        i : 1
        j : 0.0225818 0.0225818 0.022609 0.022609 
        k : 0.022114 0.022114 0.022344 0.022344 
    Block 359 cell size :
        i : 1
        j : 0.0220163 0.0220163 0.0227463 0.0227463 
        k : 0.021979 0.021979 0.0222746 0.0222746 
    Block 360 cell size :
        i : 1
        j : 0.022782 0.022782 0.0226965 0.0226965 
        k : 0.0222746 0.0222746 0.0224891 0.0224891 
    Block 361 cell size :
        i : 1
        j : 0.0225114 0.0225114 0.0262118 0.0262118 
        k : 0.0250289 0.0250289 0.0231968 0.0231968 
    Block 362 cell size :
        i : 1
        j : 0.0126172 0.0126172 0.0111714 0.0111714 
        k : 0.00984785 0.00984785 0.0173192 0.0173192 
    Block 363 cell size :
        i : 1
        j : 0.0111714 0.0111714 0.0112992 0.0112992 
        k : 0.0126446 0.0126446 0.0137384 0.0137384 
    Block 364 cell size :
        i : 1
        j : 0.022389 0.022389 0.0226384 0.0226384 
        k : 0.0225653 0.0225653 0.0226322 0.0226322 
    Block 365 cell size :
        i : 1
        j : 0.0220494 0.0220494 0.0223615 0.0223615 
        k : 0.022494 0.022494 0.0226043 0.0226043 
    Block 366 cell size :
        i : 1
        j : 0.0114289 0.0114289 0.0122339 0.0122339 
        k : 0.0115356 0.0115356 0.0114809 0.0114809 
    Block 367 cell size :
        i : 1
        j : 0.0180449 0.0180449 0.0191586 0.0191586 
        k : 0.0141108 0.0141108 0.0244016 0.0244016 
    Block 368 cell size :
        i : 1
        j : 0.0151077 0.0151077 0.016912 0.016912 
        k : 0.0161474 0.0161474 0.0160685 0.0160685 
    Block 369 cell size :
        i : 1
        j : 0.0111618 0.0111618 0.0209972 0.0209972 
        k : 0.0180449 0.0180449 0.015641 0.015641 
    Block 370 cell size :
        i : 1
        j : 0.0144323 0.0144323 0.0173985 0.0173985 
        k : 0.0155362 0.0155362 0.0162738 0.0162738 
    Block 371 cell size :
        i : 1
        j : 0.0144215 0.0144215 0.0147184 0.0147184 
        k : 0.012957 0.012957 0.0143249 0.0143249 
    Block 372 cell size :
        i : 1
        j : 0.0224163 0.0224163 0.022345 0.022345 
        k : 0.0230793 0.0230793 0.0232056 0.0232056 
    Block 373 cell size :
        i : 1
        j : 0.022334 0.022334 0.022345 0.022345 
        k : 0.0232056 0.0232056 0.0232242 0.0232242 
    Block 374 cell size :
        i : 1
        j : 0.0217021 0.0217021 0.0220633 0.0220633 
        k : 0.0228466 0.0228466 0.0237586 0.0237586 
    Block 375 cell size :
        i : 1
        j : 0.022037 0.022037 0.022247 0.022247 
        k : 0.023241 0.023241 0.0232025 0.0232025 
    Block 376 cell size :
        i : 1
        j : 0.0227201 0.0227201 0.0215345 0.0215345 
        k : 0.0210959 0.0210959 0.025898 0.025898 
    Block 377 cell size :
        i : 1
        j : 0.0171441 0.0171441 0.0227201 0.0227201 
        k : 0.018679 0.018679 0.0199806 0.0199806 
    Block 378 cell size :
        i : 1
        j : 0.0219128 0.0219128 0.0217587 0.0217587 
        k : 0.0224802 0.0224802 0.0227185 0.0227185 
    Block 379 cell size :
        i : 1
        j : 0.0222028 0.0222028 0.0223023 0.0223023 
        k : 0.022598 0.022598 0.0228947 0.0228947 
    Block 380 cell size :
        i : 1
        j : 0.0225361 0.0225361 0.022404 0.022404 
        k : 0.0228943 0.0228943 0.023211 0.023211 
    Block 381 cell size :
        i : 1
        j : 0.0129552 0.0129552 0.013648 0.013648 
        k : 0.0116538 0.0116538 0.0119415 0.0119415 
    Block 382 cell size :
        i : 1
        j : 0.013648 0.013648 0.0144215 0.0144215 
        k : 0.0123859 0.0123859 0.0132056 0.0132056 
    Block 383 cell size :
        i : 1
        j : 0.0119093 0.0119093 0.0124499 0.0124499 
        k : 0.0103281 0.0103281 0.0104967 0.0104967 
    Block 384 cell size :
        i : 1
        j : 0.00961063 0.00961063 0.00984872 0.00984872 
        k : 0.0110032 0.0110032 0.0119093 0.0119093 
    Block 385 cell size :
        i : 1
        j : 0.0124499 0.0124499 0.0128776 0.0128776 
        k : 0.0108095 0.0108095 0.0110656 0.0110656 
    Block 386 cell size :
        i : 1
        j : 0.00872265 0.00872265 0.00954564 0.00954564 
        k : 0.010589 0.010589 0.0110032 0.0110032 
    Block 387 cell size :
        i : 1
        j : 0.010589 0.010589 0.0115785 0.0115785 
        k : 0.00918204 0.00918204 0.00973705 0.00973705 
    Block 388 cell size :
        i : 1
        j : 0.0118555 0.0118555 0.0121718 0.0121718 
        k : 0.0103501 0.0103501 0.0100971 0.0100971 
    Block 389 cell size :
        i : 1
        j : 0.0117773 0.0117773 0.0118595 0.0118595 
        k : 0.0100205 0.0100205 0.0101371 0.0101371 
    Block 390 cell size :
        i : 1
        j : 0.0115307 0.0115307 0.0117773 0.0117773 
        k : 0.00994658 0.00994658 0.00990619 0.00990619 
    Block 391 cell size :
        i : 1
        j : 0.0115307 0.0115307 0.0113357 0.0113357 
        k : 0.00963858 0.00963858 0.00990567 0.00990567 
    Block 392 cell size :
        i : 1
        j : 0.0113357 0.0113357 0.0114655 0.0114655 
        k : 0.00967855 0.00967855 0.00991107 0.00991107 
    Block 393 cell size :
        i : 1
        j : 0.0114655 0.0114655 0.0117222 0.0117222 
        k : 0.0100476 0.0100476 0.0100592 0.0100592 
    Block 394 cell size :
        i : 1
        j : 0.0115799 0.0115799 0.0116333 0.0116333 
        k : 0.0102356 0.0102356 0.0101758 0.0101758 
    Block 395 cell size :
        i : 1
        j : 0.0115289 0.0115289 0.0114989 0.0114989 
        k : 0.0101766 0.0101766 0.0102149 0.0102149 
    Block 396 cell size :
        i : 1
        j : 0.0115289 0.0115289 0.0115573 0.0115573 
        k : 0.0102059 0.0102059 0.0101916 0.0101916 
    Block 397 cell size :
        i : 1
        j : 0.0115573 0.0115573 0.0116452 0.0116452 
        k : 0.0102501 0.0102501 0.0102523 0.0102523 
    Block 398 cell size :
        i : 1
        j : 0.0116004 0.0116004 0.0117676 0.0117676 
        k : 0.0104151 0.0104151 0.0102818 0.0102818 
    Block 399 cell size :
        i : 1
        j : 0.0121741 0.0121741 0.0119538 0.0119538 
        k : 0.0106513 0.0106513 0.0110686 0.0110686 
    Block 400 cell size :
        i : 1
        j : 0.0119538 0.0119538 0.0117676 0.0117676 
        k : 0.0104212 0.0104212 0.0106651 0.0106651 
    Block 401 cell size :
        i : 1
        j : 0.0125456 0.0125456 0.0121627 0.0121627 
        k : 0.010101 0.010101 0.0111351 0.0111351 
    Block 402 cell size :
        i : 1
        j : 0.0107925 0.0107925 0.010101 0.010101 
        k : 0.0122945 0.0122945 0.0131191 0.0131191 
    Block 403 cell size :
        i : 1
        j : 0.010535 0.010535 0.0103884 0.0103884 
        k : 0.0117502 0.0117502 0.0120587 0.0120587 
    Block 404 cell size :
        i : 1
        j : 0.0146352 0.0146352 0.0161396 0.0161396 
        k : 0.0160751 0.0160751 0.0147747 0.0147747 
    Block 405 cell size :
        i : 1
        j : 0.013413 0.013413 0.0143568 0.0143568 
        k : 0.0129815 0.0129815 0.0154805 0.0154805 
    Block 406 cell size :
        i : 1
        j : 0.013413 0.013413 0.0146352 0.0146352 
        k : 0.0150248 0.0150248 0.0139721 0.0139721 
    Block 407 cell size :
        i : 1
        j : 0.0102689 0.0102689 0.0102926 0.0102926 
        k : 0.0114582 0.0114582 0.0116554 0.0116554 
    Block 408 cell size :
        i : 1
        j : 0.00987237 0.00987237 0.0100809 0.0100809 
        k : 0.011236 0.011236 0.0112946 0.0112946 
    Block 409 cell size :
        i : 1
        j : 0.0108166 0.0108166 0.0116166 0.0116166 
        k : 0.00960823 0.00960823 0.00991315 0.00991315 
    Block 410 cell size :
        i : 1
        j : 0.0105702 0.0105702 0.0143568 0.0143568 
        k : 0.0146505 0.0146505 0.0121091 0.0121091 
    Block 411 cell size :
        i : 1
        j : 0.0148458 0.0148458 0.018415 0.018415 
        k : 0.0163788 0.0163788 0.0151077 0.0151077 
    Block 412 cell size :
        i : 1
        j : 0.00979876 0.00979876 0.0163788 0.0163788 
        k : 0.0126172 0.0126172 0.0129742 0.0129742 
    Block 413 cell size :
        i : 1
        j : 0.0122339 0.0122339 0.0149391 0.0149391 
        k : 0.0126446 0.0126446 0.01208 0.01208 
    Block 414 cell size :
        i : 1
        j : 0.00984785 0.00984785 0.0121635 0.0121635 
        k : 0.00979876 0.00979876 0.0149391 0.0149391 
    Block 415 cell size :
        i : 1
        j : 0.022626 0.022626 0.0225129 0.0225129 
        k : 0.0218977 0.0218977 0.0221211 0.0221211 
    Block 416 cell size :
        i : 1
        j : 0.0227846 0.0227846 0.0226467 0.0226467 
        k : 0.0221294 0.0221294 0.022344 0.022344 
    Block 417 cell size :
        i : 1
        j : 0.0226733 0.0226733 0.0229694 0.0229694 
        k : 0.0220115 0.0220115 0.0221849 0.0221849 
    Block 418 cell size :
        i : 1
        j : 0.0222457 0.0222457 0.0222089 0.0222089 
        k : 0.0229694 0.0229694 0.0232542 0.0232542 
    Block 419 cell size :
        i : 1
        j : 0.0222395 0.0222395 0.0225944 0.0225944 
        k : 0.0236634 0.0236634 0.0237586 0.0237586 
    Block 420 cell size :
        i : 1
        j : 0.0225129 0.0225129 0.0225051 0.0225051 
        k : 0.021855 0.021855 0.022114 0.022114 
    Block 421 cell size :
        i : 1
        j : 0.0225051 0.0225051 0.0226733 0.0226733 
        k : 0.0218711 0.0218711 0.0221304 0.0221304 
    Block 422 cell size :
        i : 1
        j : 0.0226288 0.0226288 0.0226965 0.0226965 
        k : 0.0226322 0.0226322 0.0227272 0.0227272 
    Block 423 cell size :
        i : 1
        j : 0.0227463 0.0227463 0.0232261 0.0232261 
        k : 0.0231968 0.0231968 0.0227272 0.0227272 
    Block 424 cell size :
        i : 1
        j : 0.0244016 0.0244016 0.0237112 0.0237112 
        k : 0.0229135 0.0229135 0.0262118 0.0262118 
    Block 425 cell size :
        i : 1
        j : 0.0182045 0.0182045 0.0255878 0.0255878 
        k : 0.0215115 0.0215115 0.0191586 0.0191586 
    Block 426 cell size :
        i : 1
        j : 0.0100086 0.0100086 0.0215115 0.0215115 
        k : 0.0184812 0.0184812 0.0161474 0.0161474 
    Block 427 cell size :
        i : 1
        j : 0.0134239 0.0134239 0.018415 0.018415 
        k : 0.0100086 0.0100086 0.0164998 0.0164998 
    Block 428 cell size :
        i : 1
        j : 0.014415 0.014415 0.0164998 0.0164998 
        k : 0.010841 0.010841 0.0173192 0.0173192 
    Block 429 cell size :
        i : 1
        j : 0.0111084 0.0111084 0.0112992 0.0112992 
        k : 0.0116539 0.0116539 0.0115356 0.0115356 
    Block 430 cell size :
        i : 1
        j : 0.0101702 0.0101702 0.0122165 0.0122165 
        k : 0.00710944 0.00710944 0.014415 0.014415 
    Block 431 cell size :
        i : 1
        j : 0.00804671 0.00804671 0.0137384 0.0137384 
        k : 0.0101702 0.0101702 0.0101899 0.0101899 
    Block 432 cell size :
        i : 1
        j : 0.0221357 0.0221357 0.022389 0.022389 
        k : 0.0226043 0.0226043 0.0228125 0.0228125 
    Block 433 cell size :
        i : 1
        j : 0.0216886 0.0216886 0.0220494 0.0220494 
        k : 0.022494 0.022494 0.022566 0.022566 
    Block 434 cell size :
        i : 1
        j : 0.0108393 0.0108393 0.0114289 0.0114289 
        k : 0.0106863 0.0106863 0.0108314 0.0108314 
    Block 435 cell size :
        i : 1
        j : 0.0113785 0.0113785 0.0114809 0.0114809 
        k : 0.0115662 0.0115662 0.012268 0.012268 
    Block 436 cell size :
        i : 1
        j : 0.0184737 0.0184737 0.0182045 0.0182045 
        k : 0.016912 0.016912 0.0189264 0.0189264 
    Block 437 cell size :
        i : 1
        j : 0.0141108 0.0141108 0.0170383 0.0170383 
        k : 0.0111618 0.0111618 0.0189264 0.0189264 
    Block 438 cell size :
        i : 1
        j : 0.0143645 0.0143645 0.0160685 0.0160685 
        k : 0.0148123 0.0148123 0.0157878 0.0157878 
    Block 439 cell size :
        i : 1
        j : 0.0139852 0.0139852 0.015641 0.015641 
        k : 0.0136292 0.0136292 0.0155362 0.0155362 
    Block 440 cell size :
        i : 1
        j : 0.00996314 0.00996314 0.0170383 0.0170383 
        k : 0.0131124 0.0131124 0.0136292 0.0136292 
    Block 441 cell size :
        i : 1
        j : 0.0147184 0.0147184 0.0143468 0.0143468 
        k : 0.0130684 0.0130684 0.0144323 0.0144323 
    Block 442 cell size :
        i : 1
        j : 0.0136152 0.0136152 0.0137397 0.0137397 
        k : 0.0121015 0.0121015 0.012957 0.012957 
    Block 443 cell size :
        i : 1
        j : 0.0224163 0.0224163 0.0226218 0.0226218 
        k : 0.0233823 0.0233823 0.023211 0.023211 
    Block 444 cell size :
        i : 1
        j : 0.022334 0.022334 0.0223243 0.0223243 
        k : 0.023241 0.023241 0.0233823 0.0233823 
    Block 445 cell size :
        i : 1
        j : 0.0215877 0.0215877 0.0217021 0.0217021 
        k : 0.020349 0.020349 0.0264202 0.0264202 
    Block 446 cell size :
        i : 1
        j : 0.0212925 0.0212925 0.022037 0.022037 
        k : 0.0231019 0.0231019 0.0228466 0.0228466 
    Block 447 cell size :
        i : 1
        j : 0.0182766 0.0182766 0.0161396 0.0161396 
        k : 0.0114347 0.0114347 0.0199806 0.0199806 
    Block 448 cell size :
        i : 1
        j : 0.0217976 0.0217976 0.025898 0.025898 
        k : 0.0230263 0.0230263 0.0217587 0.0217587 
    Block 449 cell size :
        i : 1
        j : 0.0217713 0.0217713 0.0222028 0.0222028 
        k : 0.0224802 0.0224802 0.022632 0.022632 
    Block 450 cell size :
        i : 1
        j : 0.0228414 0.0228414 0.0225361 0.0225361 
        k : 0.0228947 0.0228947 0.02363 0.02363 
    Block 451 cell size :
        i : 1
        j : 0.0128776 0.0128776 0.013264 0.013264 
        k : 0.0112313 0.0112313 0.0116538 0.0116538 
    Block 452 cell size :
        i : 1
        j : 0.013264 0.013264 0.0136152 0.0136152 
        k : 0.011756 0.011756 0.0123859 0.0123859 
    Block 453 cell size :
        i : 1
        j : 0.0119876 0.0119876 0.0123347 0.0123347 
        k : 0.0102667 0.0102667 0.0103281 0.0103281 
    Block 454 cell size :
        i : 1
        j : 0.0116468 0.0116468 0.0119876 0.0119876 
        k : 0.0100041 0.0100041 0.00984872 0.00984872 
    Block 455 cell size :
        i : 1
        j : 0.0123347 0.0123347 0.0126357 0.0126357 
        k : 0.0105861 0.0105861 0.0108095 0.0108095 
    Block 456 cell size :
        i : 1
        j : 0.0116468 0.0116468 0.0115627 0.0115627 
        k : 0.00954564 0.00954564 0.00985501 0.00985501 
    Block 457 cell size :
        i : 1
        j : 0.0115627 0.0115627 0.0118555 0.0118555 
        k : 0.00973705 0.00973705 0.00993629 0.00993629 
    Block 458 cell size :
        i : 1
        j : 0.0118164 0.0118164 0.0118595 0.0118595 
        k : 0.0100971 0.0100971 0.0100558 0.0100558 
    Block 459 cell size :
        i : 1
        j : 0.0116144 0.0116144 0.0116862 0.0116862 
        k : 0.0100158 0.0100158 0.0100205 0.0100205 
    Block 460 cell size :
        i : 1
        j : 0.0115112 0.0115112 0.0116144 0.0116144 
        k : 0.00999638 0.00999638 0.00994658 0.00994658 
    Block 461 cell size :
        i : 1
        j : 0.0115112 0.0115112 0.0114381 0.0114381 
        k : 0.00990567 0.00990567 0.0100151 0.0100151 
    Block 462 cell size :
        i : 1
        j : 0.0114381 0.0114381 0.0114803 0.0114803 
        k : 0.00991107 0.00991107 0.010009 0.010009 
    Block 463 cell size :
        i : 1
        j : 0.0114803 0.0114803 0.0115799 0.0115799 
        k : 0.0100592 0.0100592 0.0100772 0.0100772 
    Block 464 cell size :
        i : 1
        j : 0.0114552 0.0114552 0.0114989 0.0114989 
        k : 0.0101758 0.0101758 0.0101464 0.0101464 
    Block 465 cell size :
        i : 1
        j : 0.0114227 0.0114227 0.0114817 0.0114817 
        k : 0.0101766 0.0101766 0.0101381 0.0101381 
    Block 466 cell size :
        i : 1
        j : 0.0114817 0.0114817 0.0115247 0.0115247 
        k : 0.0101916 0.0101916 0.0101572 0.0101572 
    Block 467 cell size :
        i : 1
        j : 0.0115247 0.0115247 0.0116004 0.0116004 
        k : 0.0102523 0.0102523 0.0101974 0.0101974 
    Block 468 cell size :
        i : 1
        j : 0.0117617 0.0117617 0.011622 0.011622 
        k : 0.010101 0.010101 0.0102818 0.0102818 
    Block 469 cell size :
        i : 1
        j : 0.0119404 0.0119404 0.0117617 0.0117617 
        k : 0.010101 0.010101 0.0104212 0.0104212 
    Block 470 cell size :
        i : 1
        j : 0.0121627 0.0121627 0.0119404 0.0119404 
        k : 0.010101 0.010101 0.0106513 0.0106513 
    Block 471 cell size :
        i : 1
        j : 0.00968574 0.00968574 0.010101 0.010101 
        k : 0.010101 0.010101 0.0107278 0.0107278 
    Block 472 cell size :
        i : 1
        j : 0.0103884 0.0103884 0.010101 0.010101 
        k : 0.0118688 0.0118688 0.0122945 0.0122945 
    Block 473 cell size :
        i : 1
        j : 0.0102926 0.0102926 0.0102253 0.0102253 
        k : 0.011519 0.011519 0.0117502 0.0117502 
    Block 474 cell size :
        i : 1
        j : 0.0135926 0.0135926 0.0180255 0.0180255 
        k : 0.0147747 0.0147747 0.015885 0.015885 
    Block 475 cell size :
        i : 1
        j : 0.0120778 0.0120778 0.0107906 0.0107906 
        k : 0.0108081 0.0108081 0.0129815 0.0129815 
    Block 476 cell size :
        i : 1
        j : 0.0135926 0.0135926 0.0120778 0.0120778 
        k : 0.0121356 0.0121356 0.0139721 0.0139721 
    Block 477 cell size :
        i : 1
        j : 0.0100809 0.0100809 0.0101362 0.0101362 
        k : 0.01134 0.01134 0.0114582 0.0114582 
    Block 478 cell size :
        i : 1
        j : 0.0100315 0.0100315 0.00991315 0.00991315 
        k : 0.011236 0.011236 0.0113558 0.0113558 
    Block 479 cell size :
        i : 1
        j : 0.0100705 0.0100705 0.0105702 0.0105702 
        k : 0.0116166 0.0116166 0.01155 0.01155 
    Block 480 cell size :
        i : 1
        j : 0.0107906 0.0107906 0.0101034 0.0101034 
        k : 0.0102981 0.0102981 0.0121091 0.0121091 
    Block 481 cell size :
        i : 1
        j : 0.0111063 0.0111063 0.0215877 0.0215877 
        k : 0.0126012 0.0126012 0.0168299 0.0168299 
    Block 482 cell size :
        i : 1
        j : 0.0136872 0.0136872 0.0148458 0.0148458 
        k : 0.0136762 0.0136762 0.0148123 0.0148123 
    Block 483 cell size :
        i : 1
        j : 0.0128234 0.0128234 0.0136762 0.0136762 
        k : 0.0129742 0.0129742 0.0132997 0.0132997 
    Block 484 cell size :
        i : 1
        j : 0.0144001 0.0144001 0.01208 0.01208 
        k : 0.012268 0.012268 0.015777 0.015777 
    Block 485 cell size :
        i : 1
        j : 0.0128234 0.0128234 0.015777 0.015777 
        k : 0.0143013 0.0143013 0.0121635 0.0121635 
    Block 486 cell size :
        i : 1
        j : 0.021695 0.021695 0.0218977 0.0218977 
        k : 0.0224506 0.0224506 0.0226449 0.0226449 
    Block 487 cell size :
        i : 1
        j : 0.0227224 0.0227224 0.022626 0.022626 
        k : 0.0219362 0.0219362 0.0221294 0.0221294 
    Block 488 cell size :
        i : 1
        j : 0.0227846 0.0227846 0.0230216 0.0230216 
        k : 0.022345 0.022345 0.0221252 0.0221252 
    Block 489 cell size :
        i : 1
        j : 0.0225526 0.0225526 0.0230356 0.0230356 
        k : 0.0217526 0.0217526 0.0220115 0.0220115 
    Block 490 cell size :
        i : 1
        j : 0.0230356 0.0230356 0.0236634 0.0236634 
        k : 0.022332 0.022332 0.0222089 0.0222089 
    Block 491 cell size :
        i : 1
        j : 0.0136197 0.0136197 0.0168299 0.0168299 
        k : 0.0103783 0.0103783 0.0226501 0.0226501 
    Block 492 cell size :
        i : 1
        j : 0.0264202 0.0264202 0.0243243 0.0243243 
        k : 0.0225944 0.0225944 0.0254274 0.0254274 
    Block 493 cell size :
        i : 1
        j : 0.0223561 0.0223561 0.0225526 0.0225526 
        k : 0.0214796 0.0214796 0.0218711 0.0218711 
    Block 494 cell size :
        i : 1
        j : 0.0224506 0.0224506 0.0223561 0.0223561 
        k : 0.0215281 0.0215281 0.021855 0.021855 
    Block 495 cell size :
        i : 1
        j : 0.00873972 0.00873972 0.00949256 0.00949256 
        k : 0.0106027 0.0106027 0.011167 0.011167 
    Block 496 cell size :
        i : 1
        j : 0.0224194 0.0224194 0.0226288 0.0226288 
        k : 0.0228125 0.0228125 0.0231434 0.0231434 
    Block 497 cell size :
        i : 1
        j : 0.0229251 0.0229251 0.0232261 0.0232261 
        k : 0.0231434 0.0231434 0.0237112 0.0237112 
    Block 498 cell size :
        i : 1
        j : 0.0229135 0.0229135 0.0258021 0.0258021 
        k : 0.0255878 0.0255878 0.0238758 0.0238758 
    Block 499 cell size :
        i : 1
        j : 0.0184812 0.0184812 0.0174958 0.0174958 
        k : 0.0134239 0.0134239 0.0256479 0.0256479 
    Block 500 cell size :
        i : 1
        j : 0.00917655 0.00917655 0.0174958 0.0174958 
        k : 0.0135475 0.0135475 0.010841 0.010841 
    Block 501 cell size :
        i : 1
        j : 0.00912991 0.00912991 0.0122165 0.0122165 
        k : 0.00917655 0.00917655 0.0108189 0.0108189 
    Block 502 cell size :
        i : 1
        j : 0.0104668 0.0104668 0.010473 0.010473 
        k : 0.0113226 0.0113226 0.0115096 0.0115096 
    Block 503 cell size :
        i : 1
        j : 0.0105303 0.0105303 0.0108393 0.0108393 
        k : 0.00974136 0.00974136 0.0105497 0.0105497 
    Block 504 cell size :
        i : 1
        j : 0.00992062 0.00992062 0.0111084 0.0111084 
        k : 0.0108343 0.0108343 0.0106863 0.0106863 
    Block 505 cell size :
        i : 1
        j : 0.0112113 0.0112113 0.0116539 0.0116539 
        k : 0.0101899 0.0101899 0.0111028 0.0111028 
    Block 506 cell size :
        i : 1
        j : 0.00710944 0.00710944 0.00943607 0.00943607 
        k : 0.00804671 0.00804671 0.00936183 0.00936183 
    Block 507 cell size :
        i : 1
        j : 0.0217659 0.0217659 0.0221357 0.0221357 
        k : 0.022566 0.022566 0.0227243 0.0227243 
    Block 508 cell size :
        i : 1
        j : 0.0212885 0.0212885 0.0216886 0.0216886 
        k : 0.022493 0.022493 0.0224515 0.0224515 
    Block 509 cell size :
        i : 1
        j : 0.0112892 0.0112892 0.0115662 0.0115662 
        k : 0.0108314 0.0108314 0.0107834 0.0107834 
    Block 510 cell size :
        i : 1
        j : 0.0105497 0.0105497 0.0106396 0.0106396 
        k : 0.0112892 0.0112892 0.0113226 0.0113226 
    Block 511 cell size :
        i : 1
        j : 0.0112679 0.0112679 0.0113964 0.0113964 
        k : 0.0106316 0.0106316 0.0113785 0.0113785 
    Block 512 cell size :
        i : 1
        j : 0.0104076 0.0104076 0.010327 0.010327 
        k : 0.0115704 0.0115704 0.0116842 0.0116842 
    Block 513 cell size :
        i : 1
        j : 0.010473 0.010473 0.0104158 0.0104158 
        k : 0.011462 0.011462 0.0115704 0.0115704 
    Block 514 cell size :
        i : 1
        j : 0.0174505 0.0174505 0.0157878 0.0157878 
        k : 0.0144164 0.0144164 0.0184737 0.0184737 
    Block 515 cell size :
        i : 1
        j : 0.0131124 0.0131124 0.0133563 0.0133563 
        k : 0.0107964 0.0107964 0.0174505 0.0174505 
    Block 516 cell size :
        i : 1
        j : 0.0129183 0.0129183 0.0143645 0.0143645 
        k : 0.0137529 0.0137529 0.0143469 0.0143469 
    Block 517 cell size :
        i : 1
        j : 0.0129858 0.0129858 0.0143468 0.0143468 
        k : 0.0139852 0.0139852 0.01301 0.01301 
    Block 518 cell size :
        i : 1
        j : 0.0107964 0.0107964 0.0129858 0.0129858 
        k : 0.00996314 0.00996314 0.0128334 0.0128334 
    Block 519 cell size :
        i : 1
        j : 0.0137397 0.0137397 0.0136566 0.0136566 
        k : 0.0122468 0.0122468 0.0130684 0.0130684 
    Block 520 cell size :
        i : 1
        j : 0.0130504 0.0130504 0.0130613 0.0130613 
        k : 0.0114585 0.0114585 0.0121015 0.0121015 
    Block 521 cell size :
        i : 1
        j : 0.0226218 0.0226218 0.0232899 0.0232899 
        k : 0.0240488 0.0240488 0.02363 0.02363 
    Block 522 cell size :
        i : 1
        j : 0.0223243 0.0223243 0.0224088 0.0224088 
        k : 0.0231019 0.0231019 0.0240488 0.0240488 
    Block 523 cell size :
        i : 1
        j : 0.0181489 0.0181489 0.0212925 0.0212925 
        k : 0.0216163 0.0216163 0.020349 0.020349 
    Block 524 cell size :
        i : 1
        j : 0.0126012 0.0126012 0.017807 0.017807 
        k : 0.0115789 0.0115789 0.0181489 0.0181489 
    Block 525 cell size :
        i : 1
        j : 0.0114347 0.0114347 0.0195398 0.0195398 
        k : 0.0136023 0.0136023 0.0180255 0.0180255 
    Block 526 cell size :
        i : 1
        j : 0.0136023 0.0136023 0.0230263 0.0230263 
        k : 0.0182766 0.0182766 0.0190278 0.0190278 
    Block 527 cell size :
        i : 1
        j : 0.0202703 0.0202703 0.0217713 0.0217713 
        k : 0.0217976 0.0217976 0.0215795 0.0215795 
    Block 528 cell size :
        i : 1
        j : 0.0226398 0.0226398 0.0228414 0.0228414 
        k : 0.022632 0.022632 0.0237248 0.0237248 
    Block 529 cell size :
        i : 1
        j : 0.0126357 0.0126357 0.0129166 0.0129166 
        k : 0.0109129 0.0109129 0.0112313 0.0112313 
    Block 530 cell size :
        i : 1
        j : 0.0129166 0.0129166 0.0130504 0.0130504 
        k : 0.0112444 0.0112444 0.011756 0.011756 
    Block 531 cell size :
        i : 1
        j : 0.0118259 0.0118259 0.0120053 0.0120053 
        k : 0.0100807 0.0100807 0.0100041 0.0100041 
    Block 532 cell size :
        i : 1
        j : 0.0120053 0.0120053 0.0122334 0.0122334 
        k : 0.0102236 0.0102236 0.0102667 0.0102667 
    Block 533 cell size :
        i : 1
        j : 0.0122334 0.0122334 0.0124215 0.0124215 
        k : 0.0104238 0.0104238 0.0105861 0.0105861 
    Block 534 cell size :
        i : 1
        j : 0.0118259 0.0118259 0.0117705 0.0117705 
        k : 0.00985501 0.00985501 0.00997539 0.00997539 
    Block 535 cell size :
        i : 1
        j : 0.0117705 0.0117705 0.0118164 0.0118164 
        k : 0.00993629 0.00993629 0.0100132 0.0100132 
    Block 536 cell size :
        i : 1
        j : 0.0116862 0.0116862 0.0117213 0.0117213 
        k : 0.0100582 0.0100582 0.0100558 0.0100558 
    Block 537 cell size :
        i : 1
[...]
    Block 27320 cell size :
        i : 1
        j : 0.00715374 0.00715374 0 0 
        k : 0.00800692 0.00800692 0.00812886 0.00812886 
    Block 27321 cell size :
        i : 1
        j : 0.00832271 0.00832271 0 0 
        k : 0.00771021 0.00771021 0.00833757 0.00833757 
    Block 27322 cell size :
        i : 1
        j : 0.00832703 0.00832703 0 0 
        k : 0.00808539 0.00808539 0.00833757 0.00833757 
    Block 27323 cell size :
        i : 1
        j : 0.00863624 0.00863624 0 0 
        k : 0.00808539 0.00808539 0.00864741 0.00864741 
    Block 27324 cell size :
        i : 1
        j : 0.00863769 0.00863769 0 0 
        k : 0.00846811 0.00846811 0.00864741 0.00864741 
    Block 27325 cell size :
        i : 1
        j : 0.00836255 0.00836255 0 0 
        k : 0.00808626 0.00808626 0.00838303 0.00838303 
    Block 27326 cell size :
        i : 1
        j : 0.00836255 0.00836255 0 0 
        k : 0.00770411 0.00770411 0.00839578 0.00839578 
    Block 27327 cell size :
        i : 1
        j : 0.00866151 0.00866151 0 0 
        k : 0.00847657 0.00847657 0.00866581 0.00866581 
    Block 27328 cell size :
        i : 1
        j : 0.00866151 0.00866151 0 0 
        k : 0.00808626 0.00808626 0.00867413 0.00867413 
    Block 27329 cell size :
        i : 1
        j : 0.00887433 0.00887433 0 0 
        k : 0.00895253 0.00895253 0.00895317 0.00895317 
    Block 27330 cell size :
        i : 1
        j : 0.00895317 0.00895317 0 0 
        k : 0.00847657 0.00847657 0.00895759 0.00895759 
    Block 27331 cell size :
        i : 1
        j : 0.00924886 0.00924886 0 0 
        k : 0.00924985 0.00924985 0.00928258 0.00928258 
    Block 27332 cell size :
        i : 1
        j : 0.00924985 0.00924985 0 0 
        k : 0.00887433 0.00887433 0.00925014 0.00925014 
    Block 27333 cell size :
        i : 1
        j : 0.00956459 0.00956459 0 0 
        k : 0.00956585 0.00956585 0.00970105 0.00970105 
    Block 27334 cell size :
        i : 1
        j : 0.00956585 0.00956585 0 0 
        k : 0.00928258 0.00928258 0.00956574 0.00956574 
    Block 27335 cell size :
        i : 1
        j : 0.00992323 0.00992323 0 0 
        k : 0.00992305 0.00992305 0.010133 0.010133 
    Block 27336 cell size :
        i : 1
        j : 0.00970105 0.00970105 0 0 
        k : 0.00992229 0.00992229 0.00992305 0.00992305 
    Block 27337 cell size :
        i : 1
        j : 0.00893697 0.00893697 0 0 
        k : 0.00846267 0.00846267 0.00894512 0.00894512 
    Block 27338 cell size :
        i : 1
        j : 0.00893793 0.00893793 0 0 
        k : 0.00885704 0.00885704 0.00894512 0.00894512 
    Block 27339 cell size :
        i : 1
        j : 0.00893544 0.00893544 0 0 
        k : 0.00846811 0.00846811 0.00894421 0.00894421 
    Block 27340 cell size :
        i : 1
        j : 0.00893697 0.00893697 0 0 
        k : 0.00886192 0.00886192 0.00894421 0.00894421 
    Block 27341 cell size :
        i : 1
        j : 0.00923733 0.00923733 0 0 
        k : 0.00885704 0.00885704 0.00924334 0.00924334 
    Block 27342 cell size :
        i : 1
        j : 0.00924334 0.00924334 0 0 
        k : 0.00923822 0.00923822 0.00926574 0.00926574 
    Block 27343 cell size :
        i : 1
        j : 0.00955927 0.00955927 0 0 
        k : 0.00926574 0.00926574 0.00956337 0.00956337 
    Block 27344 cell size :
        i : 1
        j : 0.00956337 0.00956337 0 0 
        k : 0.00956194 0.00956194 0.00969013 0.00969013 
    Block 27345 cell size :
        i : 1
        j : 0.00992206 0.00992206 0 0 
        k : 0.00969013 0.00969013 0.00992401 0.00992401 
    Block 27346 cell size :
        i : 1
        j : 0.00992401 0.00992401 0 0 
        k : 0.0099288 0.0099288 0.0101328 0.0101328 
    Block 27347 cell size :
        i : 1
        j : 0.00837808 0.00837808 0 0 
        k : 0.00807613 0.00807613 0.00839578 0.00839578 
    Block 27348 cell size :
        i : 1
        j : 0.00837808 0.00837808 0 0 
        k : 0.00768178 0.00768178 0.00839635 0.00839635 
    Block 27349 cell size :
        i : 1
        j : 0.00772155 0.00772155 0 0 
        k : 0.00832784 0.00832784 0.00833557 0.00833557 
    Block 27350 cell size :
        i : 1
        j : 0.00832271 0.00832271 0 0 
        k : 0.00809053 0.00809053 0.00832784 0.00832784 
    Block 27351 cell size :
        i : 1
        j : 0.00806519 0.00806519 0 0 
        k : 0.00839635 0.00839635 0.00839916 0.00839916 
    Block 27352 cell size :
        i : 1
        j : 0.00765891 0.00765891 0 0 
        k : 0.00836567 0.00836567 0.00839916 0.00839916 
    Block 27353 cell size :
        i : 1
        j : 0.00775 0.00775 0 0 
        k : 0.00833023 0.00833023 0.00836459 0.00836459 
    Block 27354 cell size :
        i : 1
        j : 0.00810277 0.00810277 0 0 
        k : 0.00833023 0.00833023 0.00833557 0.00833557 
    Block 27355 cell size :
        i : 1
        j : 0.00811169 0.00811169 0 0 
        k : 0.00833862 0.00833862 0.00836459 0.00836459 
    Block 27356 cell size :
        i : 1
        j : 0.00777444 0.00777444 0 0 
        k : 0.00833862 0.00833862 0.0083888 0.0083888 
    Block 27357 cell size :
        i : 1
        j : 0.0080755 0.0080755 0 0 
        k : 0.00836567 0.00836567 0.00842476 0.00842476 
    Block 27358 cell size :
        i : 1
        j : 0.00810011 0.00810011 0 0 
        k : 0.00831984 0.00831984 0.0083888 0.0083888 
    Block 27359 cell size :
        i : 1
        j : 0.00771577 0.00771577 0 0 
        k : 0.00831984 0.00831984 0.00842476 0.00842476 
    Block 27360 cell size :
        i : 1
        j : 0.00863933 0.00863933 0 0 
        k : 0.00809053 0.00809053 0.00864117 0.00864117 
    Block 27361 cell size :
        i : 1
        j : 0.00863624 0.00863624 0 0 
        k : 0.00847435 0.00847435 0.00864117 0.00864117 
    Block 27362 cell size :
        i : 1
        j : 0.00893702 0.00893702 0 0 
        k : 0.00847435 0.00847435 0.00894187 0.00894187 
    Block 27363 cell size :
        i : 1
        j : 0.00893544 0.00893544 0 0 
        k : 0.0088698 0.0088698 0.00894187 0.00894187 
    Block 27364 cell size :
        i : 1
        j : 0.00866889 0.00866889 0 0 
        k : 0.00847089 0.00847089 0.00867413 0.00867413 
    Block 27365 cell size :
        i : 1
        j : 0.00866889 0.00866889 0 0 
        k : 0.00807613 0.00807613 0.00867785 0.00867785 
    Block 27366 cell size :
        i : 1
        j : 0.00895494 0.00895494 0 0 
        k : 0.00887163 0.00887163 0.00895759 0.00895759 
    Block 27367 cell size :
        i : 1
        j : 0.00895494 0.00895494 0 0 
        k : 0.00847089 0.00847089 0.00896111 0.00896111 
    Block 27368 cell size :
        i : 1
        j : 0.00925014 0.00925014 0 0 
        k : 0.00924809 0.00924809 0.00928023 0.00928023 
    Block 27369 cell size :
        i : 1
        j : 0.00924809 0.00924809 0 0 
        k : 0.00887163 0.00887163 0.00925219 0.00925219 
    Block 27370 cell size :
        i : 1
        j : 0.00956574 0.00956574 0 0 
        k : 0.0095623 0.0095623 0.0096999 0.0096999 
    Block 27371 cell size :
        i : 1
        j : 0.0095623 0.0095623 0 0 
        k : 0.00928023 0.00928023 0.00956614 0.00956614 
    Block 27372 cell size :
        i : 1
        j : 0.00992229 0.00992229 0 0 
        k : 0.00991938 0.00991938 0.0101331 0.0101331 
    Block 27373 cell size :
        i : 1
        j : 0.00991938 0.00991938 0 0 
        k : 0.0096999 0.0096999 0.00992309 0.00992309 
    Block 27374 cell size :
        i : 1
        j : 0.00923597 0.00923597 0 0 
        k : 0.00886192 0.00886192 0.00924347 0.00924347 
    Block 27375 cell size :
        i : 1
        j : 0.00924347 0.00924347 0 0 
        k : 0.00923733 0.00923733 0.00926946 0.00926946 
    Block 27376 cell size :
        i : 1
        j : 0.00923711 0.00923711 0 0 
        k : 0.0088698 0.0088698 0.00924467 0.00924467 
    Block 27377 cell size :
        i : 1
        j : 0.00924467 0.00924467 0 0 
        k : 0.00923597 0.00923597 0.00927629 0.00927629 
    Block 27378 cell size :
        i : 1
        j : 0.00955738 0.00955738 0 0 
        k : 0.00926946 0.00926946 0.00956475 0.00956475 
    Block 27379 cell size :
        i : 1
        j : 0.00956475 0.00956475 0 0 
        k : 0.00955927 0.00955927 0.00969327 0.00969327 
    Block 27380 cell size :
        i : 1
        j : 0.00991819 0.00991819 0 0 
        k : 0.00969327 0.00969327 0.00992538 0.00992538 
    Block 27381 cell size :
        i : 1
        j : 0.00992538 0.00992538 0 0 
        k : 0.00992206 0.00992206 0.0101339 0.0101339 
    Block 27382 cell size :
        i : 1
        j : 0.00846342 0.00846342 0 0 
        k : 0.00867785 0.00867785 0.00867816 0.00867816 
    Block 27383 cell size :
        i : 1
        j : 0.00806519 0.00806519 0 0 
        k : 0.00867389 0.00867389 0.00867816 0.00867816 
    Block 27384 cell size :
        i : 1
        j : 0.00810277 0.00810277 0 0 
        k : 0.00864061 0.00864061 0.00865327 0.00865327 
    Block 27385 cell size :
        i : 1
        j : 0.00863933 0.00863933 0 0 
        k : 0.00848027 0.00848027 0.00864061 0.00864061 
    Block 27386 cell size :
        i : 1
        j : 0.00846182 0.00846182 0 0 
        k : 0.00867389 0.00867389 0.00868994 0.00868994 
    Block 27387 cell size :
        i : 1
        j : 0.0080755 0.0080755 0 0 
        k : 0.00865956 0.00865956 0.00868994 0.00868994 
    Block 27388 cell size :
        i : 1
        j : 0.00811169 0.00811169 0 0 
        k : 0.00864426 0.00864426 0.00867066 0.00867066 
    Block 27389 cell size :
        i : 1
        j : 0.00848388 0.00848388 0 0 
        k : 0.00864426 0.00864426 0.00865327 0.00865327 
    Block 27390 cell size :
        i : 1
        j : 0.00847007 0.00847007 0 0 
        k : 0.00865956 0.00865956 0.0086866 0.0086866 
    Block 27391 cell size :
        i : 1
        j : 0.00848195 0.00848195 0 0 
        k : 0.00864859 0.00864859 0.00867066 0.00867066 
    Block 27392 cell size :
        i : 1
        j : 0.00810011 0.00810011 0 0 
        k : 0.00864859 0.00864859 0.0086866 0.0086866 
    Block 27393 cell size :
        i : 1
        j : 0.00848027 0.00848027 0 0 
        k : 0.00894273 0.00894273 0.00894258 0.00894258 
    Block 27394 cell size :
        i : 1
        j : 0.00893702 0.00893702 0 0 
        k : 0.00887495 0.00887495 0.00894273 0.00894273 
    Block 27395 cell size :
        i : 1
        j : 0.00923969 0.00923969 0 0 
        k : 0.00887495 0.00887495 0.00924532 0.00924532 
    Block 27396 cell size :
        i : 1
        j : 0.00924532 0.00924532 0 0 
        k : 0.00923711 0.00923711 0.00928103 0.00928103 
    Block 27397 cell size :
        i : 1
        j : 0.00895827 0.00895827 0 0 
        k : 0.00886678 0.00886678 0.00896111 0.00896111 
    Block 27398 cell size :
        i : 1
        j : 0.00895827 0.00895827 0 0 
        k : 0.00846342 0.00846342 0.00896132 0.00896132 
    Block 27399 cell size :
        i : 1
        j : 0.00925219 0.00925219 0 0 
        k : 0.00924655 0.00924655 0.00927735 0.00927735 
    Block 27400 cell size :
        i : 1
        j : 0.00924655 0.00924655 0 0 
        k : 0.00886678 0.00886678 0.00925219 0.00925219 
    Block 27401 cell size :
        i : 1
        j : 0.00956614 0.00956614 0 0 
        k : 0.00956012 0.00956012 0.00969878 0.00969878 
    Block 27402 cell size :
        i : 1
        j : 0.00956012 0.00956012 0 0 
        k : 0.00927735 0.00927735 0.00956704 0.00956704 
    Block 27403 cell size :
        i : 1
        j : 0.00992309 0.00992309 0 0 
        k : 0.0099166 0.0099166 0.0101328 0.0101328 
    Block 27404 cell size :
        i : 1
        j : 0.0099166 0.0099166 0 0 
        k : 0.00969878 0.00969878 0.00992311 0.00992311 
    Block 27405 cell size :
        i : 1
        j : 0.00955668 0.00955668 0 0 
        k : 0.00927629 0.00927629 0.00956586 0.00956586 
    Block 27406 cell size :
        i : 1
        j : 0.00956586 0.00956586 0 0 
        k : 0.00955738 0.00955738 0.00969589 0.00969589 
    Block 27407 cell size :
        i : 1
        j : 0.00955813 0.00955813 0 0 
        k : 0.00928103 0.00928103 0.00956592 0.00956592 
    Block 27408 cell size :
        i : 1
        j : 0.00956592 0.00956592 0 0 
        k : 0.00955668 0.00955668 0.00969932 0.00969932 
    Block 27409 cell size :
        i : 1
        j : 0.00991894 0.00991894 0 0 
        k : 0.00969589 0.00969589 0.00992708 0.00992708 
    Block 27410 cell size :
        i : 1
        j : 0.00992708 0.00992708 0 0 
        k : 0.00991819 0.00991819 0.0101326 0.0101326 
    Block 27411 cell size :
        i : 1
        j : 0.00886207 0.00886207 0 0 
        k : 0.00896132 0.00896132 0.00896235 0.00896235 
    Block 27412 cell size :
        i : 1
        j : 0.00846182 0.00846182 0 0 
        k : 0.00895834 0.00895834 0.00896235 0.00896235 
    Block 27413 cell size :
        i : 1
        j : 0.00848388 0.00848388 0 0 
        k : 0.00894533 0.00894533 0.00895185 0.00895185 
    Block 27414 cell size :
        i : 1
        j : 0.00894258 0.00894258 0 0 
        k : 0.00887693 0.00887693 0.00894533 0.00894533 
    Block 27415 cell size :
        i : 1
        j : 0.00886304 0.00886304 0 0 
        k : 0.00895834 0.00895834 0.00896416 0.00896416 
    Block 27416 cell size :
        i : 1
        j : 0.00847007 0.00847007 0 0 
        k : 0.00895342 0.00895342 0.00896416 0.00896416 
    Block 27417 cell size :
        i : 1
        j : 0.00886888 0.00886888 0 0 
        k : 0.00895342 0.00895342 0.00896108 0.00896108 
    Block 27418 cell size :
        i : 1
        j : 0.00848195 0.00848195 0 0 
        k : 0.00894987 0.00894987 0.00896108 0.00896108 
    Block 27419 cell size :
        i : 1
        j : 0.00887432 0.00887432 0 0 
        k : 0.00894987 0.00894987 0.00895185 0.00895185 
    Block 27420 cell size :
        i : 1
        j : 0.00924359 0.00924359 0 0 
        k : 0.00887693 0.00887693 0.00924564 0.00924564 
    Block 27421 cell size :
        i : 1
        j : 0.00924564 0.00924564 0 0 
        k : 0.00923969 0.00923969 0.00928272 0.00928272 
    Block 27422 cell size :
        i : 1
        j : 0.00956059 0.00956059 0 0 
        k : 0.00928272 0.00928272 0.00956517 0.00956517 
    Block 27423 cell size :
        i : 1
        j : 0.00956517 0.00956517 0 0 
        k : 0.00955813 0.00955813 0.00970048 0.00970048 
    Block 27424 cell size :
        i : 1
        j : 0.00992134 0.00992134 0 0 
        k : 0.00970048 0.00970048 0.00992662 0.00992662 
    Block 27425 cell size :
        i : 1
        j : 0.00925219 0.00925219 0 0 
        k : 0.00924793 0.00924793 0.00927388 0.00927388 
    Block 27426 cell size :
        i : 1
        j : 0.00924793 0.00924793 0 0 
        k : 0.00886207 0.00886207 0.00925231 0.00925231 
    Block 27427 cell size :
        i : 1
        j : 0.00956704 0.00956704 0 0 
        k : 0.0095604 0.0095604 0.00969708 0.00969708 
    Block 27428 cell size :
        i : 1
        j : 0.0095604 0.0095604 0 0 
        k : 0.00927388 0.00927388 0.00956567 0.00956567 
    Block 27429 cell size :
        i : 1
        j : 0.00992311 0.00992311 0 0 
        k : 0.00991671 0.00991671 0.0101334 0.0101334 
    Block 27430 cell size :
        i : 1
        j : 0.00991671 0.00991671 0 0 
        k : 0.00969708 0.00969708 0.00992357 0.00992357 
    Block 27431 cell size :
        i : 1
        j : 0.00992662 0.00992662 0 0 
        k : 0.00991967 0.00991967 0.0101332 0.0101332 
    Block 27432 cell size :
        i : 1
        j : 0.00991967 0.00991967 0 0 
        k : 0.00969932 0.00969932 0.00992764 0.00992764 
    Block 27433 cell size :
        i : 1
        j : 0.00992764 0.00992764 0 0 
        k : 0.00991894 0.00991894 0.0101329 0.0101329 
    Block 27434 cell size :
        i : 1
        j : 0.00925231 0.00925231 0 0 
        k : 0.00924884 0.00924884 0.00927205 0.00927205 
    Block 27435 cell size :
        i : 1
        j : 0.00924884 0.00924884 0 0 
        k : 0.00886304 0.00886304 0.00925074 0.00925074 
    Block 27436 cell size :
        i : 1
        j : 0.00887432 0.00887432 0 0 
        k : 0.00924662 0.00924662 0.00924675 0.00924675 
    Block 27437 cell size :
        i : 1
        j : 0.00924662 0.00924662 0 0 
        k : 0.00924359 0.00924359 0.00928148 0.00928148 
    Block 27438 cell size :
        i : 1
        j : 0.00925074 0.00925074 0 0 
        k : 0.0092491 0.0092491 0.00927371 0.00927371 
    Block 27439 cell size :
        i : 1
        j : 0.00886888 0.00886888 0 0 
        k : 0.00924849 0.00924849 0.0092491 0.0092491 
    Block 27440 cell size :
        i : 1
        j : 0.00924849 0.00924849 0 0 
        k : 0.00924675 0.00924675 0.00927782 0.00927782 
    Block 27441 cell size :
        i : 1
        j : 0.00956318 0.00956318 0 0 
        k : 0.00928148 0.00928148 0.00956538 0.00956538 
    Block 27442 cell size :
        i : 1
        j : 0.00956538 0.00956538 0 0 
        k : 0.00956059 0.00956059 0.00970038 0.00970038 
    Block 27443 cell size :
        i : 1
        j : 0.00992273 0.00992273 0 0 
        k : 0.00970038 0.00970038 0.00992592 0.00992592 
    Block 27444 cell size :
        i : 1
        j : 0.00992592 0.00992592 0 0 
        k : 0.00992134 0.00992134 0.0101331 0.0101331 
    Block 27445 cell size :
        i : 1
        j : 0.00956567 0.00956567 0 0 
        k : 0.00956054 0.00956054 0.00969507 0.00969507 
    Block 27446 cell size :
        i : 1
        j : 0.00956054 0.00956054 0 0 
        k : 0.00927205 0.00927205 0.00956609 0.00956609 
    Block 27447 cell size :
        i : 1
        j : 0.00992357 0.00992357 0 0 
        k : 0.00991757 0.00991757 0.0101331 0.0101331 
    Block 27448 cell size :
        i : 1
        j : 0.00991757 0.00991757 0 0 
        k : 0.00969507 0.00969507 0.00992274 0.00992274 
    Block 27449 cell size :
        i : 1
        j : 0.00956609 0.00956609 0 0 
        k : 0.00956164 0.00956164 0.00969476 0.00969476 
    Block 27450 cell size :
        i : 1
        j : 0.00956164 0.00956164 0 0 
        k : 0.00927371 0.00927371 0.00956565 0.00956565 
    Block 27451 cell size :
        i : 1
        j : 0.00956565 0.00956565 0 0 
        k : 0.00956273 0.00956273 0.00969614 0.00969614 
    Block 27452 cell size :
        i : 1
        j : 0.00956273 0.00956273 0 0 
        k : 0.00927782 0.00927782 0.00956576 0.00956576 
    Block 27453 cell size :
        i : 1
        j : 0.00956576 0.00956576 0 0 
        k : 0.00956318 0.00956318 0.00969966 0.00969966 
    Block 27454 cell size :
        i : 1
        j : 0.00992394 0.00992394 0 0 
        k : 0.00969966 0.00969966 0.00992514 0.00992514 
    Block 27455 cell size :
        i : 1
        j : 0.00992514 0.00992514 0 0 
        k : 0.00992273 0.00992273 0.0101335 0.0101335 
    Block 27456 cell size :
        i : 1
        j : 0.00992274 0.00992274 0 0 
        k : 0.00991854 0.00991854 0.0101329 0.0101329 
    Block 27457 cell size :
        i : 1
        j : 0.00991854 0.00991854 0 0 
        k : 0.00969476 0.00969476 0.0099226 0.0099226 
    Block 27458 cell size :
        i : 1
        j : 0.0099226 0.0099226 0 0 
        k : 0.00992142 0.00992142 0.0101332 0.0101332 
    Block 27459 cell size :
        i : 1
        j : 0.00992142 0.00992142 0 0 
        k : 0.00969614 0.00969614 0.0099227 0.0099227 
    Block 27460 cell size :
        i : 1
        j : 0.0099227 0.0099227 0 0 
        k : 0.00992394 0.00992394 0.0101325 0.0101325 

Writing polyMesh
----------------
Mesh Information
----------------
  boundingBox: (-0.75 -0.75 0) (1.75 0.75 1)
  nPoints: 47612
  nCells: 27461
  nFaces: 106189
  nInternalFaces: 50859
----------------
Patches
----------------
  patch 0 (start: 50859 size: 107) name: top
  patch 1 (start: 50966 size: 107) name: bottom
  patch 2 (start: 51073 size: 63) name: inlet
  patch 3 (start: 51136 size: 63) name: outlet
  patch 4 (start: 51199 size: 68) name: deck
  patch 5 (start: 51267 size: 54922) name: frontAndBack
  patch 6 (start: 106189 size: 0) name: defaultFaces

End

