/*---------------------------------------------------------------------------*\
  =========                 |
  \\      /  F ield         | OpenFOAM: The Open Source CFD Toolbox
   \\    /   O peration     | Website:  https://openfoam.org
    \\  /    A nd           | Version:  8
     \\/     M anipulation  |
\*---------------------------------------------------------------------------*/
Build  : 8-9b73cf21a682
Exec   : pisoFoam
Date   : Oct 12 2020
Time   : 10:41:16
Host   : "neowind"
PID    : 290977
I/O    : uncollated
Case   : /home/sbkimwind/Work/git/openfoam_seo/of/org/jbk2/tower_lon_piso1
nProcs : 1
sigFpe : Enabling floating point exception trapping (FOAM_SIGFPE).
fileModificationChecking : Monitoring run-time modified files using timeStampMaster (fileModificationSkew 10)
allowSystemOperations : Allowing user-supplied system call operations

// * * * * * * * * * * * * * * * * * * * * * * * * * * * * * * * * * * * * * //
Create time

Create mesh for time = 0

Reading field p

Reading field U

Reading/calculating face flux field phi

Selecting incompressible transport model Newtonian
Selecting turbulence model type RAS
Selecting RAS turbulence model kEpsilon
RAS
{
    model           kEpsilon;
    turbulence      on;
    printCoeffs     on;
    Cmu             0.09;
    C1              1.44;
    C2              1.92;
    C3              0;
    sigmak          1;
    sigmaEps        1.3;
}

No MRF models present

No finite volume options present

Starting time loop

Time = 2.5e-06

Courant Number mean: 2.00139e-06 max: 8.29093e-05
smoothSolver:  Solving for Ux, Initial residual = 1, Final residual = 2.19369e-07, No Iterations 1
smoothSolver:  Solving for Uy, Initial residual = 1, Final residual = 2.68134e-07, No Iterations 1
GAMG:  Solving for p, Initial residual = 1, Final residual = 0.080833, No Iterations 7
time step continuity errors : sum local = 3.23557e-07, global = -2.15781e-08, cumulative = -2.15781e-08
GAMG:  Solving for p, Initial residual = 0.0553848, Final residual = 9.08285e-07, No Iterations 32
time step continuity errors : sum local = 3.15387e-10, global = -1.48818e-11, cumulative = -2.1593e-08
smoothSolver:  Solving for epsilon, Initial residual = 1.84846e-05, Final residual = 5.82801e-07, No Iterations 1
smoothSolver:  Solving for k, Initial residual = 1, Final residual = 6.94535e-06, No Iterations 3
ExecutionTime = 0.03 s  ClockTime = 0 s

Time = 5e-06

Courant Number mean: 0.000246858 max: 0.325874
smoothSolver:  Solving for Ux, Initial residual = 0.971052, Final residual = 1.00763e-07, No Iterations 2
smoothSolver:  Solving for Uy, Initial residual = 0.333239, Final residual = 1.32357e-07, No Iterations 2
GAMG:  Solving for p, Initial residual = 0.0257946, Final residual = 0.00249274, No Iterations 5
time step continuity errors : sum local = 9.18061e-07, global = 6.71938e-08, cumulative = 4.56008e-08
GAMG:  Solving for p, Initial residual = 0.506333, Final residual = 9.58482e-07, No Iterations 49
time step continuity errors : sum local = 3.55256e-11, global = 1.68245e-12, cumulative = 4.56025e-08
smoothSolver:  Solving for epsilon, Initial residual = 4.9087e-06, Final residual = 4.9087e-06, No Iterations 0
smoothSolver:  Solving for k, Initial residual = 0.000892797, Final residual = 4.51298e-06, No Iterations 1
ExecutionTime = 0.06 s  ClockTime = 0 s

Time = 7.5e-06

Courant Number mean: 0.000247521 max: 0.310937
smoothSolver:  Solving for Ux, Initial residual = 0.0772354, Final residual = 5.51576e-08, No Iterations 2
smoothSolver:  Solving for Uy, Initial residual = 0.0787956, Final residual = 5.13223e-08, No Iterations 2
GAMG:  Solving for p, Initial residual = 0.420496, Final residual = 0.0404726, No Iterations 1
time step continuity errors : sum local = 3.90139e-07, global = 1.44049e-08, cumulative = 6.00074e-08
GAMG:  Solving for p, Initial residual = 0.103944, Final residual = 8.88686e-07, No Iterations 49
time step continuity errors : sum local = 5.75926e-12, global = 7.77044e-14, cumulative = 6.00075e-08
smoothSolver:  Solving for epsilon, Initial residual = 4.77291e-06, Final residual = 4.77291e-06, No Iterations 0
smoothSolver:  Solving for k, Initial residual = 0.000589464, Final residual = 4.20065e-06, No Iterations 1
ExecutionTime = 0.08 s  ClockTime = 0 s

Time = 1e-05

Courant Number mean: 0.000247596 max: 0.301562
smoothSolver:  Solving for Ux, Initial residual = 0.0270974, Final residual = 3.78215e-06, No Iterations 1
smoothSolver:  Solving for Uy, Initial residual = 0.03115, Final residual = 4.84683e-06, No Iterations 1
GAMG:  Solving for p, Initial residual = 0.226574, Final residual = 0.0197487, No Iterations 1
time step continuity errors : sum local = 8.60476e-08, global = -1.45376e-10, cumulative = 5.98621e-08
GAMG:  Solving for p, Initial residual = 0.0348847, Final residual = 8.68694e-07, No Iterations 50
time step continuity errors : sum local = 3.09461e-12, global = 9.5106e-14, cumulative = 5.98622e-08
smoothSolver:  Solving for epsilon, Initial residual = 4.88097e-06, Final residual = 4.88097e-06, No Iterations 0
smoothSolver:  Solving for k, Initial residual = 0.000449116, Final residual = 7.82532e-06, No Iterations 1
ExecutionTime = 0.1 s  ClockTime = 0 s

Time = 1.25e-05

Courant Number mean: 0.000247609 max: 0.29155
smoothSolver:  Solving for Ux, Initial residual = 0.0194866, Final residual = 3.23295e-06, No Iterations 1
smoothSolver:  Solving for Uy, Initial residual = 0.0188643, Final residual = 3.34153e-06, No Iterations 1
GAMG:  Solving for p, Initial residual = 0.132725, Final residual = 0.00956981, No Iterations 1
time step continuity errors : sum local = 3.09014e-08, global = -2.49808e-10, cumulative = 5.96124e-08
GAMG:  Solving for p, Initial residual = 0.0160217, Final residual = 9.07619e-07, No Iterations 45
time step continuity errors : sum local = 2.601e-12, global = -7.78751e-14, cumulative = 5.96123e-08
smoothSolver:  Solving for epsilon, Initial residual = 5.12238e-06, Final residual = 5.12238e-06, No Iterations 0
smoothSolver:  Solving for k, Initial residual = 0.000386661, Final residual = 6.77372e-06, No Iterations 2
ExecutionTime = 0.12 s  ClockTime = 0 s

Time = 1.5e-05

Courant Number mean: 0.000247617 max: 0.285677
smoothSolver:  Solving for Ux, Initial residual = 0.0160411, Final residual = 3.99628e-06, No Iterations 1
smoothSolver:  Solving for Uy, Initial residual = 0.0143638, Final residual = 5.37962e-06, No Iterations 1
GAMG:  Solving for p, Initial residual = 0.0990078, Final residual = 0.00702474, No Iterations 1
time step continuity errors : sum local = 1.85119e-08, global = -2.64859e-10, cumulative = 5.93475e-08
GAMG:  Solving for p, Initial residual = 0.0109174, Final residual = 9.65623e-07, No Iterations 33
time step continuity errors : sum local = 2.34179e-12, global = -6.59664e-14, cumulative = 5.93474e-08
smoothSolver:  Solving for epsilon, Initial residual = 5.6295e-06, Final residual = 5.6295e-06, No Iterations 0
smoothSolver:  Solving for k, Initial residual = 0.000474238, Final residual = 9.54929e-06, No Iterations 4
ExecutionTime = 0.14 s  ClockTime = 0 s

Time = 1.75e-05

Courant Number mean: 0.000247625 max: 0.281562
smoothSolver:  Solving for Ux, Initial residual = 0.0137446, Final residual = 4.95588e-06, No Iterations 2
smoothSolver:  Solving for Uy, Initial residual = 0.0116886, Final residual = 5.56425e-06, No Iterations 2
GAMG:  Solving for p, Initial residual = 0.0860852, Final residual = 0.00697607, No Iterations 1
time step continuity errors : sum local = 1.58053e-08, global = -2.55479e-10, cumulative = 5.90919e-08
GAMG:  Solving for p, Initial residual = 0.0116357, Final residual = 9.07154e-07, No Iterations 36
time step continuity errors : sum local = 1.93279e-12, global = -4.93275e-14, cumulative = 5.90919e-08
smoothSolver:  Solving for epsilon, Initial residual = 6.61199e-06, Final residual = 6.61199e-06, No Iterations 0
smoothSolver:  Solving for k, Initial residual = 0.000622164, Final residual = 8.33049e-06, No Iterations 11
ExecutionTime = 0.16 s  ClockTime = 0 s

Time = 2e-05

Courant Number mean: 0.000247638 max: 0.278829
smoothSolver:  Solving for Ux, Initial residual = 0.0121062, Final residual = 8.57547e-06, No Iterations 4
smoothSolver:  Solving for Uy, Initial residual = 0.00994045, Final residual = 9.5222e-06, No Iterations 7
GAMG:  Solving for p, Initial residual = 0.0836162, Final residual = 0.00708515, No Iterations 1
time step continuity errors : sum local = 1.41853e-08, global = -2.32996e-10, cumulative = 5.88589e-08
GAMG:  Solving for p, Initial residual = 0.0178296, Final residual = 9.06063e-07, No Iterations 44
time step continuity errors : sum local = 1.7314e-12, global = -4.0721e-14, cumulative = 5.88589e-08
smoothSolver:  Solving for epsilon, Initial residual = 1.18394e-05, Final residual = 4.13741e-06, No Iterations 1
smoothSolver:  Solving for k, Initial residual = 0.000708881, Final residual = 9.41892e-06, No Iterations 25
ExecutionTime = 0.18 s  ClockTime = 0 s

Time = 2.25e-05

Courant Number mean: 0.000247655 max: 0.272518
smoothSolver:  Solving for Ux, Initial residual = 0.0108741, Final residual = 8.61711e-06, No Iterations 4
smoothSolver:  Solving for Uy, Initial residual = 0.00860047, Final residual = 9.40299e-06, No Iterations 13
GAMG:  Solving for p, Initial residual = 0.0765707, Final residual = 0.00758253, No Iterations 1
time step continuity errors : sum local = 1.36324e-08, global = -2.09119e-10, cumulative = 5.86497e-08
GAMG:  Solving for p, Initial residual = 0.0207685, Final residual = 9.01931e-07, No Iterations 45
time step continuity errors : sum local = 1.55371e-12, global = -4.3902e-14, cumulative = 5.86497e-08
smoothSolver:  Solving for epsilon, Initial residual = 6.10093e-05, Final residual = 9.98901e-06, No Iterations 20
smoothSolver:  Solving for k, Initial residual = 0.000313912, Final residual = 9.46351e-06, No Iterations 32
ExecutionTime = 0.21 s  ClockTime = 0 s

Time = 2.5e-05

Courant Number mean: 0.000247669 max: 0.297904
smoothSolver:  Solving for Ux, Initial residual = 0.00982967, Final residual = 6.56242e-06, No Iterations 4
smoothSolver:  Solving for Uy, Initial residual = 0.0075207, Final residual = 9.42073e-06, No Iterations 3
GAMG:  Solving for p, Initial residual = 0.0995472, Final residual = 0.00663639, No Iterations 2
time step continuity errors : sum local = 1.11389e-08, global = -1.19235e-10, cumulative = 5.85305e-08
GAMG:  Solving for p, Initial residual = 0.0565545, Final residual = 9.88123e-07, No Iterations 45
time step continuity errors : sum local = 1.55686e-12, global = -5.30941e-14, cumulative = 5.85304e-08
smoothSolver:  Solving for epsilon, Initial residual = 6.12314e-05, Final residual = 6.61506e-06, No Iterations 4
smoothSolver:  Solving for k, Initial residual = 6.82691e-05, Final residual = 6.04001e-06, No Iterations 3
ExecutionTime = 0.23 s  ClockTime = 0 s

Time = 2.75e-05

Courant Number mean: 0.000247647 max: 0.203876
smoothSolver:  Solving for Ux, Initial residual = 0.00882571, Final residual = 5.15011e-06, No Iterations 2
smoothSolver:  Solving for Uy, Initial residual = 0.00669672, Final residual = 5.97232e-06, No Iterations 2
GAMG:  Solving for p, Initial residual = 0.0919132, Final residual = 0.00521195, No Iterations 2
time step continuity errors : sum local = 7.73063e-09, global = -1.17953e-10, cumulative = 5.84124e-08
GAMG:  Solving for p, Initial residual = 0.0245124, Final residual = 9.99214e-07, No Iterations 52
time step continuity errors : sum local = 1.39746e-12, global = -3.58696e-14, cumulative = 5.84124e-08
smoothSolver:  Solving for epsilon, Initial residual = 5.47319e-06, Final residual = 5.47319e-06, No Iterations 0
smoothSolver:  Solving for k, Initial residual = 4.04754e-05, Final residual = 9.56122e-06, No Iterations 1
ExecutionTime = 0.26 s  ClockTime = 0 s

Time = 3e-05

Courant Number mean: 0.000247654 max: 0.197205
smoothSolver:  Solving for Ux, Initial residual = 0.00802177, Final residual = 6.35577e-06, No Iterations 1
smoothSolver:  Solving for Uy, Initial residual = 0.00605991, Final residual = 5.78359e-06, No Iterations 1
GAMG:  Solving for p, Initial residual = 0.0601309, Final residual = 0.00290606, No Iterations 2
time step continuity errors : sum local = 3.84523e-09, global = -9.02725e-11, cumulative = 5.83221e-08
GAMG:  Solving for p, Initial residual = 0.0106345, Final residual = 8.84807e-07, No Iterations 50
time step continuity errors : sum local = 1.12018e-12, global = -2.75493e-14, cumulative = 5.83221e-08
smoothSolver:  Solving for epsilon, Initial residual = 1.20137e-05, Final residual = 4.40705e-06, No Iterations 1
smoothSolver:  Solving for k, Initial residual = 4.03141e-05, Final residual = 9.6888e-06, No Iterations 1
ExecutionTime = 0.28 s  ClockTime = 0 s

Time = 3.25e-05

Courant Number mean: 0.000247653 max: 0.189739
smoothSolver:  Solving for Ux, Initial residual = 0.00734439, Final residual = 3.01763e-06, No Iterations 1
smoothSolver:  Solving for Uy, Initial residual = 0.00554768, Final residual = 3.83307e-06, No Iterations 1
GAMG:  Solving for p, Initial residual = 0.0436419, Final residual = 0.00372805, No Iterations 1
time step continuity errors : sum local = 4.53488e-09, global = -1.40066e-10, cumulative = 5.8182e-08
GAMG:  Solving for p, Initial residual = 0.00537013, Final residual = 9.16324e-07, No Iterations 48
time step continuity errors : sum local = 1.07503e-12, global = -2.57221e-14, cumulative = 5.8182e-08
smoothSolver:  Solving for epsilon, Initial residual = 6.79416e-06, Final residual = 6.79416e-06, No Iterations 0
smoothSolver:  Solving for k, Initial residual = 3.58936e-05, Final residual = 8.31517e-06, No Iterations 1
ExecutionTime = 0.31 s  ClockTime = 0 s

Time = 3.5e-05

Courant Number mean: 0.000247654 max: 0.191579
smoothSolver:  Solving for Ux, Initial residual = 0.00676692, Final residual = 2.72685e-06, No Iterations 1
smoothSolver:  Solving for Uy, Initial residual = 0.00511288, Final residual = 1.97593e-06, No Iterations 1
GAMG:  Solving for p, Initial residual = 0.0378663, Final residual = 0.00263908, No Iterations 1
time step continuity errors : sum local = 2.98774e-09, global = -1.29449e-10, cumulative = 5.80526e-08
GAMG:  Solving for p, Initial residual = 0.00403827, Final residual = 9.66532e-07, No Iterations 42
time step continuity errors : sum local = 1.06256e-12, global = -2.68885e-14, cumulative = 5.80525e-08
smoothSolver:  Solving for epsilon, Initial residual = 7.4295e-06, Final residual = 7.4295e-06, No Iterations 0
smoothSolver:  Solving for k, Initial residual = 3.77057e-05, Final residual = 9.14303e-06, No Iterations 1
ExecutionTime = 0.33 s  ClockTime = 0 s

Time = 3.75e-05

Courant Number mean: 0.000247653 max: 0.191522
smoothSolver:  Solving for Ux, Initial residual = 0.00627625, Final residual = 2.47166e-06, No Iterations 1
smoothSolver:  Solving for Uy, Initial residual = 0.00475626, Final residual = 2.66546e-06, No Iterations 1
GAMG:  Solving for p, Initial residual = 0.0344449, Final residual = 0.00217337, No Iterations 1
time step continuity errors : sum local = 2.30862e-09, global = -1.17392e-10, cumulative = 5.79352e-08
GAMG:  Solving for p, Initial residual = 0.00345293, Final residual = 9.27069e-07, No Iterations 43
time step continuity errors : sum local = 9.57988e-13, global = -2.42518e-14, cumulative = 5.79351e-08
smoothSolver:  Solving for epsilon, Initial residual = 8.21289e-06, Final residual = 8.21289e-06, No Iterations 0
smoothSolver:  Solving for k, Initial residual = 4.0347e-05, Final residual = 5.23334e-06, No Iterations 2
ExecutionTime = 0.35 s  ClockTime = 0 s

Time = 4e-05

Courant Number mean: 0.000247652 max: 0.190969
smoothSolver:  Solving for Ux, Initial residual = 0.00584621, Final residual = 3.20996e-06, No Iterations 1
smoothSolver:  Solving for Uy, Initial residual = 0.00444979, Final residual = 3.13426e-06, No Iterations 1
GAMG:  Solving for p, Initial residual = 0.0336341, Final residual = 0.00215012, No Iterations 1
time step continuity errors : sum local = 2.15583e-09, global = -1.07523e-10, cumulative = 5.78276e-08
GAMG:  Solving for p, Initial residual = 0.00349475, Final residual = 9.41103e-07, No Iterations 33
time step continuity errors : sum local = 9.21809e-13, global = -2.78933e-14, cumulative = 5.78276e-08
smoothSolver:  Solving for epsilon, Initial residual = 9.48378e-06, Final residual = 9.48378e-06, No Iterations 0
smoothSolver:  Solving for k, Initial residual = 4.35727e-05, Final residual = 7.29458e-06, No Iterations 2
ExecutionTime = 0.37 s  ClockTime = 0 s

Time = 4.25e-05

Courant Number mean: 0.000247649 max: 0.190485
smoothSolver:  Solving for Ux, Initial residual = 0.0054661, Final residual = 3.95195e-06, No Iterations 1
smoothSolver:  Solving for Uy, Initial residual = 0.00418292, Final residual = 4.01475e-06, No Iterations 1
GAMG:  Solving for p, Initial residual = 0.0318234, Final residual = 0.00214677, No Iterations 1
time step continuity errors : sum local = 2.04225e-09, global = -9.67017e-11, cumulative = 5.77309e-08
GAMG:  Solving for p, Initial residual = 0.00380891, Final residual = 9.72649e-07, No Iterations 40
time step continuity errors : sum local = 9.05646e-13, global = -2.68011e-14, cumulative = 5.77308e-08
smoothSolver:  Solving for epsilon, Initial residual = 1.10295e-05, Final residual = 4.68895e-06, No Iterations 1
smoothSolver:  Solving for k, Initial residual = 4.72998e-05, Final residual = 6.01799e-06, No Iterations 3
ExecutionTime = 0.39 s  ClockTime = 0 s

Time = 4.5e-05

Courant Number mean: 0.000247644 max: 0.19034
smoothSolver:  Solving for Ux, Initial residual = 0.00512973, Final residual = 3.84161e-06, No Iterations 1
smoothSolver:  Solving for Uy, Initial residual = 0.00394924, Final residual = 4.14281e-06, No Iterations 1
GAMG:  Solving for p, Initial residual = 0.0318802, Final residual = 0.00195225, No Iterations 1
time step continuity errors : sum local = 1.76985e-09, global = -8.89769e-11, cumulative = 5.76419e-08
GAMG:  Solving for p, Initial residual = 0.00343317, Final residual = 9.26029e-07, No Iterations 34
time step continuity errors : sum local = 8.1956e-13, global = -2.17218e-14, cumulative = 5.76419e-08
smoothSolver:  Solving for epsilon, Initial residual = 6.82537e-06, Final residual = 6.82537e-06, No Iterations 0
smoothSolver:  Solving for k, Initial residual = 4.49487e-05, Final residual = 6.2684e-06, No Iterations 3
ExecutionTime = 0.41 s  ClockTime = 0 s

Time = 4.75e-05

Courant Number mean: 0.000247639 max: 0.192322
smoothSolver:  Solving for Ux, Initial residual = 0.0048307, Final residual = 5.0297e-06, No Iterations 1
smoothSolver:  Solving for Uy, Initial residual = 0.00374554, Final residual = 6.71735e-06, No Iterations 1
GAMG:  Solving for p, Initial residual = 0.0291995, Final residual = 0.00219954, No Iterations 1
time step continuity errors : sum local = 1.89761e-09, global = -7.92347e-11, cumulative = 5.75626e-08
GAMG:  Solving for p, Initial residual = 0.00419801, Final residual = 9.10322e-07, No Iterations 49
time step continuity errors : sum local = 7.71642e-13, global = -2.01698e-14, cumulative = 5.75626e-08
smoothSolver:  Solving for epsilon, Initial residual = 7.70036e-06, Final residual = 7.70036e-06, No Iterations 0
smoothSolver:  Solving for k, Initial residual = 5.03456e-05, Final residual = 9.35499e-06, No Iterations 3
ExecutionTime = 0.43 s  ClockTime = 1 s

Time = 5e-05

Courant Number mean: 0.000247634 max: 0.195103
smoothSolver:  Solving for Ux, Initial residual = 0.00456081, Final residual = 5.90917e-06, No Iterations 1
smoothSolver:  Solving for Uy, Initial residual = 0.00356394, Final residual = 8.34515e-06, No Iterations 1
GAMG:  Solving for p, Initial residual = 0.0283533, Final residual = 0.00204822, No Iterations 1
time step continuity errors : sum local = 1.69407e-09, global = -7.37973e-11, cumulative = 5.74888e-08
GAMG:  Solving for p, Initial residual = 0.00404914, Final residual = 9.139e-07, No Iterations 44
time step continuity errors : sum local = 7.44212e-13, global = -2.12601e-14, cumulative = 5.74888e-08
smoothSolver:  Solving for epsilon, Initial residual = 9.31094e-06, Final residual = 9.31094e-06, No Iterations 0
smoothSolver:  Solving for k, Initial residual = 5.49481e-05, Final residual = 9.12295e-06, No Iterations 4
ExecutionTime = 0.45 s  ClockTime = 1 s

Time = 5.25e-05

Courant Number mean: 0.000247627 max: 0.198473
smoothSolver:  Solving for Ux, Initial residual = 0.00431856, Final residual = 7.53555e-06, No Iterations 1
smoothSolver:  Solving for Uy, Initial residual = 0.00340209, Final residual = 5.50848e-06, No Iterations 2
GAMG:  Solving for p, Initial residual = 0.0279462, Final residual = 0.00218639, No Iterations 1
time step continuity errors : sum local = 1.73774e-09, global = -6.56675e-11, cumulative = 5.74231e-08
GAMG:  Solving for p, Initial residual = 0.004813, Final residual = 9.99e-07, No Iterations 50
time step continuity errors : sum local = 7.8274e-13, global = -2.01552e-14, cumulative = 5.74231e-08
smoothSolver:  Solving for epsilon, Initial residual = 1.26946e-05, Final residual = 6.03638e-06, No Iterations 1
smoothSolver:  Solving for k, Initial residual = 5.8035e-05, Final residual = 9.05922e-06, No Iterations 5
ExecutionTime = 0.47 s  ClockTime = 1 s

Time = 5.5e-05

Courant Number mean: 0.000247618 max: 0.203213
smoothSolver:  Solving for Ux, Initial residual = 0.00409692, Final residual = 8.60118e-06, No Iterations 1
smoothSolver:  Solving for Uy, Initial residual = 0.0032495, Final residual = 7.93547e-06, No Iterations 1
GAMG:  Solving for p, Initial residual = 0.0306406, Final residual = 0.00254964, No Iterations 1
time step continuity errors : sum local = 1.95529e-09, global = -6.06097e-11, cumulative = 5.73625e-08
GAMG:  Solving for p, Initial residual = 0.00521645, Final residual = 9.2204e-07, No Iterations 64
time step continuity errors : sum local = 6.92583e-13, global = -1.6849e-14, cumulative = 5.73625e-08
smoothSolver:  Solving for epsilon, Initial residual = 1.28244e-05, Final residual = 6.03024e-06, No Iterations 1
smoothSolver:  Solving for k, Initial residual = 5.34883e-05, Final residual = 8.60134e-06, No Iterations 5
ExecutionTime = 0.5 s  ClockTime = 1 s

Time = 5.75e-05

Courant Number mean: 0.000247611 max: 0.206966
smoothSolver:  Solving for Ux, Initial residual = 0.00388984, Final residual = 6.83793e-06, No Iterations 1
smoothSolver:  Solving for Uy, Initial residual = 0.00310757, Final residual = 8.89068e-06, No Iterations 1
GAMG:  Solving for p, Initial residual = 0.0290168, Final residual = 0.00206521, No Iterations 1
time step continuity errors : sum local = 1.52135e-09, global = -5.7522e-11, cumulative = 5.73049e-08
GAMG:  Solving for p, Initial residual = 0.00410707, Final residual = 9.23177e-07, No Iterations 66
time step continuity errors : sum local = 6.66022e-13, global = -1.45278e-14, cumulative = 5.73049e-08
smoothSolver:  Solving for epsilon, Initial residual = 9.55288e-06, Final residual = 9.55288e-06, No Iterations 0
smoothSolver:  Solving for k, Initial residual = 4.88245e-05, Final residual = 9.7945e-06, No Iterations 4
ExecutionTime = 0.53 s  ClockTime = 1 s

Time = 6e-05

Courant Number mean: 0.000247605 max: 0.211405
smoothSolver:  Solving for Ux, Initial residual = 0.00370136, Final residual = 6.62211e-06, No Iterations 1
smoothSolver:  Solving for Uy, Initial residual = 0.00298018, Final residual = 9.69982e-06, No Iterations 1
GAMG:  Solving for p, Initial residual = 0.0240718, Final residual = 0.00194812, No Iterations 1
time step continuity errors : sum local = 1.37549e-09, global = -5.2625e-11, cumulative = 5.72523e-08
GAMG:  Solving for p, Initial residual = 0.00381442, Final residual = 9.36417e-07, No Iterations 70
time step continuity errors : sum local = 6.52863e-13, global = -1.39666e-14, cumulative = 5.72523e-08
smoothSolver:  Solving for epsilon, Initial residual = 1.1136e-05, Final residual = 4.93879e-06, No Iterations 1
smoothSolver:  Solving for k, Initial residual = 4.91423e-05, Final residual = 8.59055e-06, No Iterations 5
ExecutionTime = 0.56 s  ClockTime = 1 s

Time = 6.25e-05

Courant Number mean: 0.000247599 max: 0.216184
smoothSolver:  Solving for Ux, Initial residual = 0.00353227, Final residual = 7.68646e-06, No Iterations 1
smoothSolver:  Solving for Uy, Initial residual = 0.00286474, Final residual = 7.93086e-06, No Iterations 1
GAMG:  Solving for p, Initial residual = 0.0256586, Final residual = 0.00178059, No Iterations 1
time step continuity errors : sum local = 1.21968e-09, global = -4.93448e-11, cumulative = 5.72029e-08
GAMG:  Solving for p, Initial residual = 0.00418526, Final residual = 9.91351e-07, No Iterations 41
time step continuity errors : sum local = 6.66501e-13, global = -1.68528e-14, cumulative = 5.72029e-08
smoothSolver:  Solving for epsilon, Initial residual = 7.68183e-06, Final residual = 7.68183e-06, No Iterations 0
smoothSolver:  Solving for k, Initial residual = 4.53622e-05, Final residual = 9.2941e-06, No Iterations 4
ExecutionTime = 0.58 s  ClockTime = 1 s

Time = 6.5e-05

Courant Number mean: 0.000247594 max: 0.221237
smoothSolver:  Solving for Ux, Initial residual = 0.00337092, Final residual = 6.44533e-06, No Iterations 1
smoothSolver:  Solving for Uy, Initial residual = 0.00276022, Final residual = 6.24081e-06, No Iterations 2
GAMG:  Solving for p, Initial residual = 0.0224288, Final residual = 0.00192126, No Iterations 1
time step continuity errors : sum local = 1.26565e-09, global = -4.47998e-11, cumulative = 5.71581e-08
GAMG:  Solving for p, Initial residual = 0.00468331, Final residual = 9.91013e-07, No Iterations 64
time step continuity errors : sum local = 6.44859e-13, global = -1.25826e-14, cumulative = 5.71581e-08
smoothSolver:  Solving for epsilon, Initial residual = 8.73215e-06, Final residual = 8.73215e-06, No Iterations 0
smoothSolver:  Solving for k, Initial residual = 4.49453e-05, Final residual = 9.75308e-06, No Iterations 4
ExecutionTime = 0.6 s  ClockTime = 1 s

Time = 6.75e-05

Courant Number mean: 0.000247589 max: 0.226822
smoothSolver:  Solving for Ux, Initial residual = 0.00322472, Final residual = 7.9847e-06, No Iterations 1
smoothSolver:  Solving for Uy, Initial residual = 0.00265815, Final residual = 8.00368e-06, No Iterations 1
GAMG:  Solving for p, Initial residual = 0.0220043, Final residual = 0.00169788, No Iterations 1
time step continuity errors : sum local = 1.08531e-09, global = -4.31938e-11, cumulative = 5.71149e-08
GAMG:  Solving for p, Initial residual = 0.00357913, Final residual = 9.47963e-07, No Iterations 65
time step continuity errors : sum local = 5.99609e-13, global = -1.05583e-14, cumulative = 5.71149e-08
smoothSolver:  Solving for epsilon, Initial residual = 1.00052e-05, Final residual = 4.33037e-06, No Iterations 1
smoothSolver:  Solving for k, Initial residual = 4.53158e-05, Final residual = 8.4627e-06, No Iterations 5
ExecutionTime = 0.63 s  ClockTime = 1 s

Time = 7e-05

Courant Number mean: 0.000247584 max: 0.2291
smoothSolver:  Solving for Ux, Initial residual = 0.00308825, Final residual = 7.88533e-06, No Iterations 1
smoothSolver:  Solving for Uy, Initial residual = 0.00256809, Final residual = 8.03523e-06, No Iterations 1
GAMG:  Solving for p, Initial residual = 0.022602, Final residual = 0.00173732, No Iterations 1
time step continuity errors : sum local = 1.0821e-09, global = -4.03807e-11, cumulative = 5.70745e-08
GAMG:  Solving for p, Initial residual = 0.003886, Final residual = 9.54073e-07, No Iterations 66
time step continuity errors : sum local = 5.85338e-13, global = -1.10589e-14, cumulative = 5.70745e-08
smoothSolver:  Solving for epsilon, Initial residual = 7.85895e-06, Final residual = 7.85895e-06, No Iterations 0
smoothSolver:  Solving for k, Initial residual = 4.12585e-05, Final residual = 8.82296e-06, No Iterations 4
ExecutionTime = 0.66 s  ClockTime = 1 s

Time = 7.25e-05

Courant Number mean: 0.000247581 max: 0.232618
smoothSolver:  Solving for Ux, Initial residual = 0.00295647, Final residual = 6.94499e-06, No Iterations 1
smoothSolver:  Solving for Uy, Initial residual = 0.00248329, Final residual = 9.92548e-06, No Iterations 1
GAMG:  Solving for p, Initial residual = 0.0199939, Final residual = 0.0015831, No Iterations 1
time step continuity errors : sum local = 9.53873e-10, global = -3.66182e-11, cumulative = 5.70379e-08
GAMG:  Solving for p, Initial residual = 0.00360804, Final residual = 9.63406e-07, No Iterations 59
time step continuity errors : sum local = 5.7454e-13, global = -7.90137e-15, cumulative = 5.70379e-08
smoothSolver:  Solving for epsilon, Initial residual = 8.90024e-06, Final residual = 8.90024e-06, No Iterations 0
smoothSolver:  Solving for k, Initial residual = 4.09857e-05, Final residual = 9.20952e-06, No Iterations 4
ExecutionTime = 0.69 s  ClockTime = 1 s

Time = 7.5e-05

Courant Number mean: 0.000247578 max: 0.235531
smoothSolver:  Solving for Ux, Initial residual = 0.00283758, Final residual = 8.46966e-06, No Iterations 1
smoothSolver:  Solving for Uy, Initial residual = 0.00240132, Final residual = 8.56554e-06, No Iterations 1
GAMG:  Solving for p, Initial residual = 0.0192602, Final residual = 0.00156568, No Iterations 1
time step continuity errors : sum local = 9.18634e-10, global = -3.51541e-11, cumulative = 5.70027e-08
GAMG:  Solving for p, Initial residual = 0.00299752, Final residual = 9.5542e-07, No Iterations 88
time step continuity errors : sum local = 5.55381e-13, global = -7.29399e-15, cumulative = 5.70027e-08
smoothSolver:  Solving for epsilon, Initial residual = 1.01872e-05, Final residual = 4.16244e-06, No Iterations 1
smoothSolver:  Solving for k, Initial residual = 4.10172e-05, Final residual = 9.6815e-06, No Iterations 4
ExecutionTime = 0.72 s  ClockTime = 1 s

Time = 7.75e-05

Courant Number mean: 0.000247574 max: 0.240435
smoothSolver:  Solving for Ux, Initial residual = 0.00272728, Final residual = 8.86743e-06, No Iterations 1
smoothSolver:  Solving for Uy, Initial residual = 0.00232549, Final residual = 7.09653e-06, No Iterations 1
GAMG:  Solving for p, Initial residual = 0.0198709, Final residual = 0.00168378, No Iterations 1
time step continuity errors : sum local = 9.64933e-10, global = -3.35637e-11, cumulative = 5.69692e-08
GAMG:  Solving for p, Initial residual = 0.0035701, Final residual = 9.78759e-07, No Iterations 65
time step continuity errors : sum local = 5.53113e-13, global = -9.51937e-15, cumulative = 5.69692e-08
smoothSolver:  Solving for epsilon, Initial residual = 8.59391e-06, Final residual = 8.59391e-06, No Iterations 0
smoothSolver:  Solving for k, Initial residual = 3.69728e-05, Final residual = 8.09429e-06, No Iterations 4
ExecutionTime = 0.75 s  ClockTime = 1 s

Time = 8e-05

Courant Number mean: 0.000247572 max: 0.243591
smoothSolver:  Solving for Ux, Initial residual = 0.00261867, Final residual = 7.70054e-06, No Iterations 1
smoothSolver:  Solving for Uy, Initial residual = 0.00225593, Final residual = 9.51416e-06, No Iterations 1
GAMG:  Solving for p, Initial residual = 0.0182317, Final residual = 0.00158546, No Iterations 1
time step continuity errors : sum local = 8.81372e-10, global = -3.12844e-11, cumulative = 5.69379e-08
GAMG:  Solving for p, Initial residual = 0.00369126, Final residual = 9.84787e-07, No Iterations 83
time step continuity errors : sum local = 5.4238e-13, global = -6.15316e-15, cumulative = 5.69379e-08
smoothSolver:  Solving for epsilon, Initial residual = 9.69006e-06, Final residual = 9.69006e-06, No Iterations 0
smoothSolver:  Solving for k, Initial residual = 3.69353e-05, Final residual = 8.4168e-06, No Iterations 4
ExecutionTime = 0.78 s  ClockTime = 1 s

Time = 8.25e-05

Courant Number mean: 0.000247569 max: 0.245698
smoothSolver:  Solving for Ux, Initial residual = 0.00252138, Final residual = 9.36924e-06, No Iterations 1
smoothSolver:  Solving for Uy, Initial residual = 0.00218677, Final residual = 7.41446e-06, No Iterations 1
GAMG:  Solving for p, Initial residual = 0.0179226, Final residual = 0.00153109, No Iterations 1
time step continuity errors : sum local = 8.31248e-10, global = -2.95948e-11, cumulative = 5.69083e-08
GAMG:  Solving for p, Initial residual = 0.00294794, Final residual = 9.5271e-07, No Iterations 90
time step continuity errors : sum local = 5.13091e-13, global = -5.33704e-15, cumulative = 5.69083e-08
smoothSolver:  Solving for epsilon, Initial residual = 1.10189e-05, Final residual = 4.46967e-06, No Iterations 1
smoothSolver:  Solving for k, Initial residual = 3.7089e-05, Final residual = 8.82526e-06, No Iterations 4
ExecutionTime = 0.82 s  ClockTime = 1 s

Time = 8.5e-05

Courant Number mean: 0.000247566 max: 0.245904
smoothSolver:  Solving for Ux, Initial residual = 0.00242964, Final residual = 9.46672e-06, No Iterations 1
smoothSolver:  Solving for Uy, Initial residual = 0.00212371, Final residual = 6.53331e-06, No Iterations 1
GAMG:  Solving for p, Initial residual = 0.0182609, Final residual = 0.00167162, No Iterations 1
time step continuity errors : sum local = 8.90057e-10, global = -2.91109e-11, cumulative = 5.68792e-08
GAMG:  Solving for p, Initial residual = 0.0036662, Final residual = 9.65403e-07, No Iterations 72
time step continuity errors : sum local = 5.07762e-13, global = -5.91129e-15, cumulative = 5.68791e-08
smoothSolver:  Solving for epsilon, Initial residual = 9.50039e-06, Final residual = 9.50039e-06, No Iterations 0
smoothSolver:  Solving for k, Initial residual = 3.33595e-05, Final residual = 9.20941e-06, No Iterations 3
ExecutionTime = 0.85 s  ClockTime = 1 s

Time = 8.75e-05

Courant Number mean: 0.000247564 max: 0.24468
smoothSolver:  Solving for Ux, Initial residual = 0.00233919, Final residual = 7.97671e-06, No Iterations 1
smoothSolver:  Solving for Uy, Initial residual = 0.00206588, Final residual = 8.48911e-06, No Iterations 1
GAMG:  Solving for p, Initial residual = 0.0170078, Final residual = 0.00164829, No Iterations 1
time step continuity errors : sum local = 8.53999e-10, global = -2.67439e-11, cumulative = 5.68524e-08
GAMG:  Solving for p, Initial residual = 0.00356743, Final residual = 9.76067e-07, No Iterations 86
time step continuity errors : sum local = 5.01367e-13, global = -4.5233e-15, cumulative = 5.68524e-08
smoothSolver:  Solving for epsilon, Initial residual = 1.05908e-05, Final residual = 4.15256e-06, No Iterations 1
smoothSolver:  Solving for k, Initial residual = 3.32878e-05, Final residual = 9.4324e-06, No Iterations 3
ExecutionTime = 0.88 s  ClockTime = 1 s

Time = 9e-05

Courant Number mean: 0.000247562 max: 0.242715
smoothSolver:  Solving for Ux, Initial residual = 0.00225895, Final residual = 9.22564e-06, No Iterations 1
smoothSolver:  Solving for Uy, Initial residual = 0.00200615, Final residual = 5.50067e-06, No Iterations 1
GAMG:  Solving for p, Initial residual = 0.0181638, Final residual = 0.000786063, No Iterations 2
time step continuity errors : sum local = 3.9984e-10, global = -8.414e-12, cumulative = 5.6844e-08
GAMG:  Solving for p, Initial residual = 0.00517121, Final residual = 9.64194e-07, No Iterations 68
time step continuity errors : sum local = 4.84035e-13, global = -6.40808e-15, cumulative = 5.6844e-08
smoothSolver:  Solving for epsilon, Initial residual = 9.5068e-06, Final residual = 9.5068e-06, No Iterations 0
smoothSolver:  Solving for k, Initial residual = 2.98708e-05, Final residual = 7.72866e-06, No Iterations 3
ExecutionTime = 0.91 s  ClockTime = 1 s

Time = 9.25e-05

Courant Number mean: 0.000247559 max: 0.240292
smoothSolver:  Solving for Ux, Initial residual = 0.00217853, Final residual = 7.20284e-06, No Iterations 1
smoothSolver:  Solving for Uy, Initial residual = 0.00195477, Final residual = 7.43192e-06, No Iterations 1
GAMG:  Solving for p, Initial residual = 0.0165848, Final residual = 0.00161507, No Iterations 1
time step continuity errors : sum local = 7.99451e-10, global = -2.39988e-11, cumulative = 5.682e-08
GAMG:  Solving for p, Initial residual = 0.00323545, Final residual = 9.75656e-07, No Iterations 87
time step continuity errors : sum local = 4.79099e-13, global = -3.72585e-15, cumulative = 5.682e-08
smoothSolver:  Solving for epsilon, Initial residual = 1.04648e-05, Final residual = 3.93736e-06, No Iterations 1
smoothSolver:  Solving for k, Initial residual = 2.9803e-05, Final residual = 7.90929e-06, No Iterations 3
ExecutionTime = 0.95 s  ClockTime = 1 s

Time = 9.5e-05

Courant Number mean: 0.000247556 max: 0.239736
smoothSolver:  Solving for Ux, Initial residual = 0.00210734, Final residual = 8.2108e-06, No Iterations 1
smoothSolver:  Solving for Uy, Initial residual = 0.00190266, Final residual = 5.07609e-06, No Iterations 1
GAMG:  Solving for p, Initial residual = 0.0173261, Final residual = 0.000791586, No Iterations 2
time step continuity errors : sum local = 3.85265e-10, global = -6.94649e-12, cumulative = 5.6813e-08
GAMG:  Solving for p, Initial residual = 0.00522028, Final residual = 9.71501e-07, No Iterations 83
time step continuity errors : sum local = 4.66732e-13, global = -5.16216e-15, cumulative = 5.6813e-08
smoothSolver:  Solving for epsilon, Initial residual = 9.52942e-06, Final residual = 9.52942e-06, No Iterations 0
smoothSolver:  Solving for k, Initial residual = 2.67071e-05, Final residual = 8.69602e-06, No Iterations 2
ExecutionTime = 0.98 s  ClockTime = 1 s

Time = 9.75e-05

Courant Number mean: 0.000247554 max: 0.24167
smoothSolver:  Solving for Ux, Initial residual = 0.00203611, Final residual = 6.52492e-06, No Iterations 1
smoothSolver:  Solving for Uy, Initial residual = 0.00185664, Final residual = 6.34527e-06, No Iterations 1
GAMG:  Solving for p, Initial residual = 0.0155999, Final residual = 0.00148623, No Iterations 1
time step continuity errors : sum local = 7.04738e-10, global = -2.16326e-11, cumulative = 5.67914e-08
GAMG:  Solving for p, Initial residual = 0.00291035, Final residual = 9.47578e-07, No Iterations 89
time step continuity errors : sum local = 4.45708e-13, global = -3.07377e-15, cumulative = 5.67914e-08
smoothSolver:  Solving for epsilon, Initial residual = 1.03463e-05, Final residual = 3.69912e-06, No Iterations 1
smoothSolver:  Solving for k, Initial residual = 2.65634e-05, Final residual = 8.78022e-06, No Iterations 2
ExecutionTime = 1.01 s  ClockTime = 1 s

Time = 0.0001

Courant Number mean: 0.000247551 max: 0.242281
smoothSolver:  Solving for Ux, Initial residual = 0.00197276, Final residual = 7.07808e-06, No Iterations 1
smoothSolver:  Solving for Uy, Initial residual = 0.0018105, Final residual = 4.72622e-06, No Iterations 1
GAMG:  Solving for p, Initial residual = 0.0168474, Final residual = 0.000932378, No Iterations 2
time step continuity errors : sum local = 4.34818e-10, global = -6.14534e-12, cumulative = 5.67852e-08
GAMG:  Solving for p, Initial residual = 0.00541914, Final residual = 9.82223e-07, No Iterations 91
time step continuity errors : sum local = 4.51883e-13, global = -4.90152e-15, cumulative = 5.67852e-08
smoothSolver:  Solving for epsilon, Initial residual = 9.41052e-06, Final residual = 9.41052e-06, No Iterations 0
smoothSolver:  Solving for k, Initial residual = 2.37276e-05, Final residual = 7.1724e-06, No Iterations 2
ExecutionTime = 1.05 s  ClockTime = 1 s

Time = 0.0001025

Courant Number mean: 0.000247548 max: 0.244311
smoothSolver:  Solving for Ux, Initial residual = 0.00190959, Final residual = 5.76242e-06, No Iterations 1
smoothSolver:  Solving for Uy, Initial residual = 0.00176801, Final residual = 5.59469e-06, No Iterations 1
GAMG:  Solving for p, Initial residual = 0.0149658, Final residual = 0.00148534, No Iterations 1
time step continuity errors : sum local = 6.74763e-10, global = -2.07449e-11, cumulative = 5.67645e-08
GAMG:  Solving for p, Initial residual = 0.00300539, Final residual = 9.70758e-07, No Iterations 90
time step continuity errors : sum local = 4.37511e-13, global = -3.00329e-15, cumulative = 5.67645e-08
smoothSolver:  Solving for epsilon, Initial residual = 1.00731e-05, Final residual = 3.39632e-06, No Iterations 1
smoothSolver:  Solving for k, Initial residual = 2.35631e-05, Final residual = 7.24451e-06, No Iterations 2
ExecutionTime = 1.08 s  ClockTime = 1 s

Time = 0.000105

Courant Number mean: 0.000247545 max: 0.245
smoothSolver:  Solving for Ux, Initial residual = 0.00185312, Final residual = 6.06579e-06, No Iterations 1
smoothSolver:  Solving for Uy, Initial residual = 0.00172631, Final residual = 4.33191e-06, No Iterations 1
GAMG:  Solving for p, Initial residual = 0.0166526, Final residual = 0.00097366, No Iterations 2
time step continuity errors : sum local = 4.35061e-10, global = -5.21463e-12, cumulative = 5.67593e-08
GAMG:  Solving for p, Initial residual = 0.00552211, Final residual = 9.58834e-07, No Iterations 90
time step continuity errors : sum local = 4.22564e-13, global = -4.77353e-15, cumulative = 5.67593e-08
smoothSolver:  Solving for epsilon, Initial residual = 9.09536e-06, Final residual = 9.09536e-06, No Iterations 0
smoothSolver:  Solving for k, Initial residual = 2.10457e-05, Final residual = 9.18082e-06, No Iterations 1
ExecutionTime = 1.12 s  ClockTime = 1 s

Time = 0.0001075

Courant Number mean: 0.000247543 max: 0.247052
smoothSolver:  Solving for Ux, Initial residual = 0.00179631, Final residual = 4.98087e-06, No Iterations 1
smoothSolver:  Solving for Uy, Initial residual = 0.00168647, Final residual = 4.62699e-06, No Iterations 1
GAMG:  Solving for p, Initial residual = 0.0144235, Final residual = 0.00140795, No Iterations 1
time step continuity errors : sum local = 6.13238e-10, global = -1.85233e-11, cumulative = 5.67408e-08
GAMG:  Solving for p, Initial residual = 0.00288239, Final residual = 9.42594e-07, No Iterations 84
time step continuity errors : sum local = 4.0702e-13, global = -3.35462e-15, cumulative = 5.67407e-08
smoothSolver:  Solving for epsilon, Initial residual = 9.565e-06, Final residual = 9.565e-06, No Iterations 0
smoothSolver:  Solving for k, Initial residual = 2.0876e-05, Final residual = 9.15017e-06, No Iterations 1
ExecutionTime = 1.16 s  ClockTime = 1 s

Time = 0.00011

Courant Number mean: 0.00024754 max: 0.247782
smoothSolver:  Solving for Ux, Initial residual = 0.00174451, Final residual = 5.04867e-06, No Iterations 1
smoothSolver:  Solving for Uy, Initial residual = 0.00164847, Final residual = 4.12259e-06, No Iterations 1
GAMG:  Solving for p, Initial residual = 0.0133701, Final residual = 0.00114046, No Iterations 1
time step continuity errors : sum local = 4.87041e-10, global = -1.78257e-11, cumulative = 5.67229e-08
GAMG:  Solving for p, Initial residual = 0.00243132, Final residual = 9.88531e-07, No Iterations 69
time step continuity errors : sum local = 4.1876e-13, global = -6.53788e-15, cumulative = 5.67229e-08
smoothSolver:  Solving for epsilon, Initial residual = 1.00514e-05, Final residual = 3.185e-06, No Iterations 1
smoothSolver:  Solving for k, Initial residual = 2.0794e-05, Final residual = 9.20353e-06, No Iterations 1
ExecutionTime = 1.19 s  ClockTime = 1 s

Time = 0.0001125

Courant Number mean: 0.000247537 max: 0.246993
smoothSolver:  Solving for Ux, Initial residual = 0.00169536, Final residual = 4.98028e-06, No Iterations 1
smoothSolver:  Solving for Uy, Initial residual = 0.0016132, Final residual = 3.64818e-06, No Iterations 1
GAMG:  Solving for p, Initial residual = 0.0166713, Final residual = 0.00100877, No Iterations 2
time step continuity errors : sum local = 4.24557e-10, global = -5.4296e-12, cumulative = 5.67175e-08
GAMG:  Solving for p, Initial residual = 0.00536425, Final residual = 9.53127e-07, No Iterations 91
time step continuity errors : sum local = 3.95496e-13, global = -5.05513e-15, cumulative = 5.67175e-08
smoothSolver:  Solving for epsilon, Initial residual = 8.8296e-06, Final residual = 8.8296e-06, No Iterations 0
smoothSolver:  Solving for k, Initial residual = 1.85518e-05, Final residual = 7.63889e-06, No Iterations 1
ExecutionTime = 1.22 s  ClockTime = 1 s

Time = 0.000115

Courant Number mean: 0.000247535 max: 0.248549
smoothSolver:  Solving for Ux, Initial residual = 0.00164686, Final residual = 4.09774e-06, No Iterations 1
smoothSolver:  Solving for Uy, Initial residual = 0.00157815, Final residual = 3.86803e-06, No Iterations 1
GAMG:  Solving for p, Initial residual = 0.0137794, Final residual = 0.000527161, No Iterations 2
time step continuity errors : sum local = 2.16335e-10, global = -5.0473e-12, cumulative = 5.67124e-08
GAMG:  Solving for p, Initial residual = 0.00288037, Final residual = 9.42426e-07, No Iterations 81
time step continuity errors : sum local = 3.83729e-13, global = -4.33296e-15, cumulative = 5.67124e-08
smoothSolver:  Solving for epsilon, Initial residual = 9.16782e-06, Final residual = 9.16782e-06, No Iterations 0
smoothSolver:  Solving for k, Initial residual = 1.84282e-05, Final residual = 7.67279e-06, No Iterations 1
ExecutionTime = 1.25 s  ClockTime = 1 s

Time = 0.0001175

Courant Number mean: 0.000247532 max: 0.248868
smoothSolver:  Solving for Ux, Initial residual = 0.00160222, Final residual = 4.19795e-06, No Iterations 1
smoothSolver:  Solving for Uy, Initial residual = 0.00154445, Final residual = 3.1765e-06, No Iterations 1
GAMG:  Solving for p, Initial residual = 0.0123026, Final residual = 0.000983926, No Iterations 1
time step continuity errors : sum local = 3.96779e-10, global = -1.48195e-11, cumulative = 5.66976e-08
GAMG:  Solving for p, Initial residual = 0.00206723, Final residual = 9.90785e-07, No Iterations 68
time step continuity errors : sum local = 3.96629e-13, global = -3.95498e-15, cumulative = 5.66976e-08
smoothSolver:  Solving for epsilon, Initial residual = 9.52021e-06, Final residual = 9.52021e-06, No Iterations 0
smoothSolver:  Solving for k, Initial residual = 1.83747e-05, Final residual = 7.73544e-06, No Iterations 1
ExecutionTime = 1.28 s  ClockTime = 1 s

Time = 0.00012

Courant Number mean: 0.000247529 max: 0.247983
smoothSolver:  Solving for Ux, Initial residual = 0.00155941, Final residual = 4.2031e-06, No Iterations 1
smoothSolver:  Solving for Uy, Initial residual = 0.00151282, Final residual = 3.14779e-06, No Iterations 1
GAMG:  Solving for p, Initial residual = 0.0112964, Final residual = 0.00090381, No Iterations 1
time step continuity errors : sum local = 3.58556e-10, global = -1.40154e-11, cumulative = 5.66836e-08
GAMG:  Solving for p, Initial residual = 0.00185134, Final residual = 9.9452e-07, No Iterations 67
time step continuity errors : sum local = 3.9185e-13, global = -3.79486e-15, cumulative = 5.66836e-08
smoothSolver:  Solving for epsilon, Initial residual = 9.88636e-06, Final residual = 9.88636e-06, No Iterations 0
smoothSolver:  Solving for k, Initial residual = 1.83315e-05, Final residual = 7.79575e-06, No Iterations 1
ExecutionTime = 1.31 s  ClockTime = 1 s

Time = 0.0001225

Courant Number mean: 0.000247526 max: 0.246296
smoothSolver:  Solving for Ux, Initial residual = 0.00151886, Final residual = 4.2484e-06, No Iterations 1
smoothSolver:  Solving for Uy, Initial residual = 0.00148258, Final residual = 2.98923e-06, No Iterations 1
GAMG:  Solving for p, Initial residual = 0.0110766, Final residual = 0.00086677, No Iterations 1
time step continuity errors : sum local = 3.38379e-10, global = -1.36383e-11, cumulative = 5.66699e-08
GAMG:  Solving for p, Initial residual = 0.00175245, Final residual = 9.43684e-07, No Iterations 68
time step continuity errors : sum local = 3.65891e-13, global = -3.78596e-15, cumulative = 5.66699e-08
smoothSolver:  Solving for epsilon, Initial residual = 1.0261e-05, Final residual = 3.09482e-06, No Iterations 1
smoothSolver:  Solving for k, Initial residual = 1.82868e-05, Final residual = 7.85518e-06, No Iterations 1
ExecutionTime = 1.35 s  ClockTime = 1 s

Time = 0.000125

Courant Number mean: 0.000247523 max: 0.244242
smoothSolver:  Solving for Ux, Initial residual = 0.00148042, Final residual = 4.18131e-06, No Iterations 1
smoothSolver:  Solving for Uy, Initial residual = 0.00145471, Final residual = 3.09156e-06, No Iterations 1
GAMG:  Solving for p, Initial residual = 0.0154144, Final residual = 0.00110516, No Iterations 2
time step continuity errors : sum local = 4.26287e-10, global = -4.08274e-12, cumulative = 5.66659e-08
GAMG:  Solving for p, Initial residual = 0.00540577, Final residual = 9.88999e-07, No Iterations 91
time step continuity errors : sum local = 3.7646e-13, global = -4.73911e-15, cumulative = 5.66659e-08
smoothSolver:  Solving for epsilon, Initial residual = 8.68216e-06, Final residual = 8.68216e-06, No Iterations 0
smoothSolver:  Solving for k, Initial residual = 1.63061e-05, Final residual = 6.49396e-06, No Iterations 1
ExecutionTime = 1.39 s  ClockTime = 1 s

Time = 0.0001275

Courant Number mean: 0.00024752 max: 0.244891
smoothSolver:  Solving for Ux, Initial residual = 0.00144184, Final residual = 3.50356e-06, No Iterations 1
smoothSolver:  Solving for Uy, Initial residual = 0.00142563, Final residual = 3.00049e-06, No Iterations 1
GAMG:  Solving for p, Initial residual = 0.0124502, Final residual = 0.000567442, No Iterations 2
time step continuity errors : sum local = 2.13943e-10, global = -3.69607e-12, cumulative = 5.66622e-08
GAMG:  Solving for p, Initial residual = 0.00276266, Final residual = 9.38944e-07, No Iterations 81
time step continuity errors : sum local = 3.5154e-13, global = -3.8325e-15, cumulative = 5.66622e-08
smoothSolver:  Solving for epsilon, Initial residual = 8.91355e-06, Final residual = 8.91355e-06, No Iterations 0
smoothSolver:  Solving for k, Initial residual = 1.6228e-05, Final residual = 6.52384e-06, No Iterations 1
ExecutionTime = 1.42 s  ClockTime = 2 s

Time = 0.00013

Courant Number mean: 0.000247517 max: 0.244783
smoothSolver:  Solving for Ux, Initial residual = 0.00140638, Final residual = 3.57705e-06, No Iterations 1
smoothSolver:  Solving for Uy, Initial residual = 0.00139813, Final residual = 2.38384e-06, No Iterations 1
GAMG:  Solving for p, Initial residual = 0.0109863, Final residual = 0.000944412, No Iterations 1
time step continuity errors : sum local = 3.50659e-10, global = -1.21286e-11, cumulative = 5.665e-08
GAMG:  Solving for p, Initial residual = 0.00186567, Final residual = 9.88838e-07, No Iterations 64
time step continuity errors : sum local = 3.64877e-13, global = -4.55749e-15, cumulative = 5.665e-08
smoothSolver:  Solving for epsilon, Initial residual = 9.15425e-06, Final residual = 9.15425e-06, No Iterations 0
smoothSolver:  Solving for k, Initial residual = 1.6194e-05, Final residual = 6.5678e-06, No Iterations 1
ExecutionTime = 1.45 s  ClockTime = 2 s

Time = 0.0001325

Courant Number mean: 0.000247514 max: 0.243722
smoothSolver:  Solving for Ux, Initial residual = 0.00137235, Final residual = 3.65237e-06, No Iterations 1
smoothSolver:  Solving for Uy, Initial residual = 0.00137211, Final residual = 2.29997e-06, No Iterations 1
GAMG:  Solving for p, Initial residual = 0.0102803, Final residual = 0.000880429, No Iterations 1
time step continuity errors : sum local = 3.22296e-10, global = -1.14582e-11, cumulative = 5.66386e-08
GAMG:  Solving for p, Initial residual = 0.00171638, Final residual = 9.70024e-07, No Iterations 67
time step continuity errors : sum local = 3.52921e-13, global = -3.64741e-15, cumulative = 5.66386e-08
smoothSolver:  Solving for epsilon, Initial residual = 9.39945e-06, Final residual = 9.39945e-06, No Iterations 0
smoothSolver:  Solving for k, Initial residual = 1.61673e-05, Final residual = 6.6068e-06, No Iterations 1
ExecutionTime = 1.48 s  ClockTime = 2 s

Time = 0.000135

Courant Number mean: 0.000247511 max: 0.242149
smoothSolver:  Solving for Ux, Initial residual = 0.00133981, Final residual = 3.6753e-06, No Iterations 1
smoothSolver:  Solving for Uy, Initial residual = 0.00134748, Final residual = 2.32226e-06, No Iterations 1
GAMG:  Solving for p, Initial residual = 0.0099769, Final residual = 0.000820929, No Iterations 1
time step continuity errors : sum local = 2.96357e-10, global = -1.12415e-11, cumulative = 5.66273e-08
GAMG:  Solving for p, Initial residual = 0.0015824, Final residual = 9.81591e-07, No Iterations 65
time step continuity errors : sum local = 3.52276e-13, global = -4.41281e-15, cumulative = 5.66273e-08
smoothSolver:  Solving for epsilon, Initial residual = 9.64883e-06, Final residual = 9.64883e-06, No Iterations 0
smoothSolver:  Solving for k, Initial residual = 1.615e-05, Final residual = 6.6456e-06, No Iterations 1
ExecutionTime = 1.51 s  ClockTime = 2 s

Time = 0.0001375

Courant Number mean: 0.000247507 max: 0.240273
smoothSolver:  Solving for Ux, Initial residual = 0.0013084, Final residual = 3.75703e-06, No Iterations 1
smoothSolver:  Solving for Uy, Initial residual = 0.00132349, Final residual = 2.12621e-06, No Iterations 1
GAMG:  Solving for p, Initial residual = 0.00983277, Final residual = 0.000833273, No Iterations 1
time step continuity errors : sum local = 2.96815e-10, global = -1.06788e-11, cumulative = 5.66166e-08
GAMG:  Solving for p, Initial residual = 0.00162671, Final residual = 9.47718e-07, No Iterations 66
time step continuity errors : sum local = 3.3567e-13, global = -3.46247e-15, cumulative = 5.66166e-08
smoothSolver:  Solving for epsilon, Initial residual = 9.89921e-06, Final residual = 9.89921e-06, No Iterations 0
smoothSolver:  Solving for k, Initial residual = 1.61364e-05, Final residual = 6.68354e-06, No Iterations 1
ExecutionTime = 1.53 s  ClockTime = 2 s

Time = 0.00014

Courant Number mean: 0.000247504 max: 0.238341
smoothSolver:  Solving for Ux, Initial residual = 0.00127813, Final residual = 3.78493e-06, No Iterations 1
smoothSolver:  Solving for Uy, Initial residual = 0.00130097, Final residual = 2.23529e-06, No Iterations 1
GAMG:  Solving for p, Initial residual = 0.00967505, Final residual = 0.00082825, No Iterations 1
time step continuity errors : sum local = 2.91236e-10, global = -1.04889e-11, cumulative = 5.66061e-08
GAMG:  Solving for p, Initial residual = 0.00163896, Final residual = 9.69571e-07, No Iterations 66
time step continuity errors : sum local = 3.39086e-13, global = -4.28914e-15, cumulative = 5.66061e-08
smoothSolver:  Solving for epsilon, Initial residual = 1.01526e-05, Final residual = 2.99593e-06, No Iterations 1
smoothSolver:  Solving for k, Initial residual = 1.61129e-05, Final residual = 6.71703e-06, No Iterations 1
ExecutionTime = 1.56 s  ClockTime = 2 s

Time = 0.0001425

Courant Number mean: 0.0002475 max: 0.23632
smoothSolver:  Solving for Ux, Initial residual = 0.0012495, Final residual = 3.7385e-06, No Iterations 1
smoothSolver:  Solving for Uy, Initial residual = 0.00128039, Final residual = 2.74786e-06, No Iterations 1
GAMG:  Solving for p, Initial residual = 0.0152937, Final residual = 0.00130514, No Iterations 2
time step continuity errors : sum local = 4.54717e-10, global = -3.04779e-12, cumulative = 5.66031e-08
GAMG:  Solving for p, Initial residual = 0.00575151, Final residual = 9.76898e-07, No Iterations 93
time step continuity errors : sum local = 3.36043e-13, global = -4.04813e-15, cumulative = 5.66031e-08
smoothSolver:  Solving for epsilon, Initial residual = 8.37141e-06, Final residual = 8.37141e-06, No Iterations 0
smoothSolver:  Solving for k, Initial residual = 1.4385e-05, Final residual = 5.53161e-06, No Iterations 1
ExecutionTime = 1.6 s  ClockTime = 2 s

Time = 0.000145

Courant Number mean: 0.000247497 max: 0.23662
smoothSolver:  Solving for Ux, Initial residual = 0.00122039, Final residual = 3.14617e-06, No Iterations 1
smoothSolver:  Solving for Uy, Initial residual = 0.00125757, Final residual = 2.50401e-06, No Iterations 1
GAMG:  Solving for p, Initial residual = 0.0115017, Final residual = 0.00062735, No Iterations 2
time step continuity errors : sum local = 2.14081e-10, global = -2.56316e-12, cumulative = 5.66005e-08
GAMG:  Solving for p, Initial residual = 0.00291328, Final residual = 9.54506e-07, No Iterations 81
time step continuity errors : sum local = 3.2389e-13, global = -3.90501e-15, cumulative = 5.66005e-08
smoothSolver:  Solving for epsilon, Initial residual = 8.50621e-06, Final residual = 8.50621e-06, No Iterations 0
smoothSolver:  Solving for k, Initial residual = 1.43452e-05, Final residual = 5.55391e-06, No Iterations 1
ExecutionTime = 1.63 s  ClockTime = 2 s

Time = 0.0001475

Courant Number mean: 0.000247494 max: 0.236507
smoothSolver:  Solving for Ux, Initial residual = 0.00119381, Final residual = 3.19986e-06, No Iterations 1
smoothSolver:  Solving for Uy, Initial residual = 0.00123608, Final residual = 1.87288e-06, No Iterations 1
GAMG:  Solving for p, Initial residual = 0.0102104, Final residual = 0.000974146, No Iterations 1
time step continuity errors : sum local = 3.28194e-10, global = -9.51824e-12, cumulative = 5.6591e-08
GAMG:  Solving for p, Initial residual = 0.00203258, Final residual = 9.36064e-07, No Iterations 60
time step continuity errors : sum local = 3.13731e-13, global = -4.12621e-15, cumulative = 5.6591e-08
smoothSolver:  Solving for epsilon, Initial residual = 8.64416e-06, Final residual = 8.64416e-06, No Iterations 0
smoothSolver:  Solving for k, Initial residual = 1.43399e-05, Final residual = 5.58943e-06, No Iterations 1
ExecutionTime = 1.66 s  ClockTime = 2 s

Time = 0.00015

Courant Number mean: 0.00024749 max: 0.235733
smoothSolver:  Solving for Ux, Initial residual = 0.00116802, Final residual = 3.29626e-06, No Iterations 1
smoothSolver:  Solving for Uy, Initial residual = 0.00121591, Final residual = 1.85814e-06, No Iterations 1
GAMG:  Solving for p, Initial residual = 0.00960009, Final residual = 0.000941721, No Iterations 1
time step continuity errors : sum local = 3.13605e-10, global = -8.92846e-12, cumulative = 5.65821e-08
GAMG:  Solving for p, Initial residual = 0.00192403, Final residual = 9.9341e-07, No Iterations 65
time step continuity errors : sum local = 3.29212e-13, global = -4.16865e-15, cumulative = 5.65821e-08
smoothSolver:  Solving for epsilon, Initial residual = 8.78619e-06, Final residual = 8.78619e-06, No Iterations 0
smoothSolver:  Solving for k, Initial residual = 1.43419e-05, Final residual = 5.6228e-06, No Iterations 1
ExecutionTime = 1.68 s  ClockTime = 2 s

Time = 0.0001525

Courant Number mean: 0.000247487 max: 0.234553
smoothSolver:  Solving for Ux, Initial residual = 0.00114345, Final residual = 3.31802e-06, No Iterations 1
smoothSolver:  Solving for Uy, Initial residual = 0.00119656, Final residual = 1.82542e-06, No Iterations 1
GAMG:  Solving for p, Initial residual = 0.0093807, Final residual = 0.000879574, No Iterations 1
time step continuity errors : sum local = 2.89478e-10, global = -8.94512e-12, cumulative = 5.65731e-08
GAMG:  Solving for p, Initial residual = 0.00174461, Final residual = 9.4176e-07, No Iterations 62
time step continuity errors : sum local = 3.08401e-13, global = -4.14688e-15, cumulative = 5.65731e-08
smoothSolver:  Solving for epsilon, Initial residual = 8.92755e-06, Final residual = 8.92755e-06, No Iterations 0
smoothSolver:  Solving for k, Initial residual = 1.43518e-05, Final residual = 5.65801e-06, No Iterations 1
ExecutionTime = 1.71 s  ClockTime = 2 s

Time = 0.000155

Courant Number mean: 0.000247483 max: 0.233217
smoothSolver:  Solving for Ux, Initial residual = 0.00111969, Final residual = 3.4119e-06, No Iterations 1
smoothSolver:  Solving for Uy, Initial residual = 0.00117768, Final residual = 1.71189e-06, No Iterations 1
GAMG:  Solving for p, Initial residual = 0.0091617, Final residual = 0.00090146, No Iterations 1
time step continuity errors : sum local = 2.93449e-10, global = -8.34163e-12, cumulative = 5.65648e-08
GAMG:  Solving for p, Initial residual = 0.00176873, Final residual = 9.48096e-07, No Iterations 64
time step continuity errors : sum local = 3.07274e-13, global = -3.94025e-15, cumulative = 5.65648e-08
smoothSolver:  Solving for epsilon, Initial residual = 9.07187e-06, Final residual = 9.07187e-06, No Iterations 0
smoothSolver:  Solving for k, Initial residual = 1.43642e-05, Final residual = 5.69146e-06, No Iterations 1
ExecutionTime = 1.74 s  ClockTime = 2 s

Time = 0.0001575

Courant Number mean: 0.00024748 max: 0.231812
smoothSolver:  Solving for Ux, Initial residual = 0.00109693, Final residual = 3.42165e-06, No Iterations 1
smoothSolver:  Solving for Uy, Initial residual = 0.00115982, Final residual = 1.787e-06, No Iterations 1
GAMG:  Solving for p, Initial residual = 0.00913869, Final residual = 0.000897164, No Iterations 1
time step continuity errors : sum local = 2.88881e-10, global = -8.48221e-12, cumulative = 5.65563e-08
GAMG:  Solving for p, Initial residual = 0.00173466, Final residual = 9.95811e-07, No Iterations 62
time step continuity errors : sum local = 3.19168e-13, global = -4.45433e-15, cumulative = 5.65563e-08
smoothSolver:  Solving for epsilon, Initial residual = 9.21537e-06, Final residual = 9.21537e-06, No Iterations 0
smoothSolver:  Solving for k, Initial residual = 1.43822e-05, Final residual = 5.72459e-06, No Iterations 1
ExecutionTime = 1.77 s  ClockTime = 2 s

Time = 0.00016

Courant Number mean: 0.000247476 max: 0.230373
smoothSolver:  Solving for Ux, Initial residual = 0.00107504, Final residual = 3.5251e-06, No Iterations 1
smoothSolver:  Solving for Uy, Initial residual = 0.00114222, Final residual = 1.6529e-06, No Iterations 1
GAMG:  Solving for p, Initial residual = 0.00901677, Final residual = 0.000425742, No Iterations 2
time step continuity errors : sum local = 1.35697e-10, global = -2.31148e-12, cumulative = 5.6554e-08
GAMG:  Solving for p, Initial residual = 0.00187587, Final residual = 9.74742e-07, No Iterations 62
time step continuity errors : sum local = 3.09417e-13, global = -4.21671e-15, cumulative = 5.6554e-08
smoothSolver:  Solving for epsilon, Initial residual = 9.36136e-06, Final residual = 9.36136e-06, No Iterations 0
smoothSolver:  Solving for k, Initial residual = 1.4405e-05, Final residual = 5.75582e-06, No Iterations 1
ExecutionTime = 1.79 s  ClockTime = 2 s

Time = 0.0001625

Courant Number mean: 0.000247472 max: 0.228989
smoothSolver:  Solving for Ux, Initial residual = 0.00105393, Final residual = 3.51322e-06, No Iterations 1
smoothSolver:  Solving for Uy, Initial residual = 0.00112565, Final residual = 1.73678e-06, No Iterations 1
GAMG:  Solving for p, Initial residual = 0.00918547, Final residual = 0.000439737, No Iterations 2
time step continuity errors : sum local = 1.38757e-10, global = -1.43248e-12, cumulative = 5.65525e-08
GAMG:  Solving for p, Initial residual = 0.001968, Final residual = 9.40882e-07, No Iterations 64
time step continuity errors : sum local = 2.95695e-13, global = -3.91778e-15, cumulative = 5.65525e-08
smoothSolver:  Solving for epsilon, Initial residual = 9.50614e-06, Final residual = 9.50614e-06, No Iterations 0
smoothSolver:  Solving for k, Initial residual = 1.44343e-05, Final residual = 5.78578e-06, No Iterations 1
ExecutionTime = 1.82 s  ClockTime = 2 s

Time = 0.000165

Courant Number mean: 0.000247469 max: 0.227631
smoothSolver:  Solving for Ux, Initial residual = 0.00103346, Final residual = 3.58462e-06, No Iterations 1
smoothSolver:  Solving for Uy, Initial residual = 0.00110917, Final residual = 1.67365e-06, No Iterations 1
GAMG:  Solving for p, Initial residual = 0.00912075, Final residual = 0.000462381, No Iterations 2
time step continuity errors : sum local = 1.44531e-10, global = -1.7538e-12, cumulative = 5.65508e-08
GAMG:  Solving for p, Initial residual = 0.00200603, Final residual = 9.37847e-07, No Iterations 61
time step continuity errors : sum local = 2.92059e-13, global = -4.18188e-15, cumulative = 5.65508e-08
smoothSolver:  Solving for epsilon, Initial residual = 9.65335e-06, Final residual = 9.65335e-06, No Iterations 0
smoothSolver:  Solving for k, Initial residual = 1.44709e-05, Final residual = 5.81397e-06, No Iterations 1
ExecutionTime = 1.85 s  ClockTime = 2 s

Time = 0.0001675

Courant Number mean: 0.000247465 max: 0.226338
smoothSolver:  Solving for Ux, Initial residual = 0.00101374, Final residual = 3.62796e-06, No Iterations 1
smoothSolver:  Solving for Uy, Initial residual = 0.00109341, Final residual = 1.70022e-06, No Iterations 1
GAMG:  Solving for p, Initial residual = 0.00921821, Final residual = 0.000474273, No Iterations 2
time step continuity errors : sum local = 1.46888e-10, global = -1.47832e-12, cumulative = 5.65493e-08
GAMG:  Solving for p, Initial residual = 0.00204297, Final residual = 9.6829e-07, No Iterations 64
time step continuity errors : sum local = 2.98828e-13, global = -3.93475e-15, cumulative = 5.65493e-08
smoothSolver:  Solving for epsilon, Initial residual = 9.79906e-06, Final residual = 9.79906e-06, No Iterations 0
smoothSolver:  Solving for k, Initial residual = 1.45167e-05, Final residual = 5.84142e-06, No Iterations 1
ExecutionTime = 1.88 s  ClockTime = 2 s

Time = 0.00017

Courant Number mean: 0.000247461 max: 0.225118
smoothSolver:  Solving for Ux, Initial residual = 0.000994731, Final residual = 3.67397e-06, No Iterations 1
smoothSolver:  Solving for Uy, Initial residual = 0.00107811, Final residual = 1.68789e-06, No Iterations 1
GAMG:  Solving for p, Initial residual = 0.00925605, Final residual = 0.000504619, No Iterations 2
time step continuity errors : sum local = 1.54958e-10, global = -2.15088e-12, cumulative = 5.65471e-08
GAMG:  Solving for p, Initial residual = 0.00213183, Final residual = 9.68502e-07, No Iterations 61
time step continuity errors : sum local = 2.96459e-13, global = -4.2511e-15, cumulative = 5.65471e-08
smoothSolver:  Solving for epsilon, Initial residual = 9.94686e-06, Final residual = 9.94686e-06, No Iterations 0
smoothSolver:  Solving for k, Initial residual = 1.45729e-05, Final residual = 5.86798e-06, No Iterations 1
ExecutionTime = 1.9 s  ClockTime = 2 s

Time = 0.0001725

Courant Number mean: 0.000247457 max: 0.223952
smoothSolver:  Solving for Ux, Initial residual = 0.000976363, Final residual = 3.72382e-06, No Iterations 1
smoothSolver:  Solving for Uy, Initial residual = 0.00106335, Final residual = 1.69934e-06, No Iterations 1
GAMG:  Solving for p, Initial residual = 0.00929993, Final residual = 0.000527113, No Iterations 2
time step continuity errors : sum local = 1.60552e-10, global = -2.01289e-12, cumulative = 5.65451e-08
GAMG:  Solving for p, Initial residual = 0.00218029, Final residual = 9.40127e-07, No Iterations 64
time step continuity errors : sum local = 2.85516e-13, global = -3.81335e-15, cumulative = 5.65451e-08
smoothSolver:  Solving for epsilon, Initial residual = 1.0093e-05, Final residual = 2.99058e-06, No Iterations 1
smoothSolver:  Solving for k, Initial residual = 1.46309e-05, Final residual = 5.89165e-06, No Iterations 1
ExecutionTime = 1.92 s  ClockTime = 2 s

Time = 0.000175

Courant Number mean: 0.000247453 max: 0.222873
smoothSolver:  Solving for Ux, Initial residual = 0.000958953, Final residual = 3.67389e-06, No Iterations 1
smoothSolver:  Solving for Uy, Initial residual = 0.00105132, Final residual = 2.93865e-06, No Iterations 1
GAMG:  Solving for p, Initial residual = 0.0164331, Final residual = 0.00136886, No Iterations 3
time step continuity errors : sum local = 4.15436e-10, global = -1.75872e-12, cumulative = 5.65434e-08
GAMG:  Solving for p, Initial residual = 0.00707932, Final residual = 9.52119e-07, No Iterations 99
time step continuity errors : sum local = 2.85467e-13, global = -2.48923e-15, cumulative = 5.65434e-08
smoothSolver:  Solving for epsilon, Initial residual = 8.03587e-06, Final residual = 8.03587e-06, No Iterations 0
smoothSolver:  Solving for k, Initial residual = 1.31304e-05, Final residual = 4.85918e-06, No Iterations 1
ExecutionTime = 1.97 s  ClockTime = 2 s

Time = 0.0001775

Courant Number mean: 0.00024745 max: 0.223107
smoothSolver:  Solving for Ux, Initial residual = 0.000940453, Final residual = 3.18457e-06, No Iterations 1
smoothSolver:  Solving for Uy, Initial residual = 0.00103521, Final residual = 2.35521e-06, No Iterations 1
GAMG:  Solving for p, Initial residual = 0.0121185, Final residual = 0.000897335, No Iterations 2
time step continuity errors : sum local = 2.67594e-10, global = -2.03411e-12, cumulative = 5.65413e-08
GAMG:  Solving for p, Initial residual = 0.00344935, Final residual = 9.87815e-07, No Iterations 84
time step continuity errors : sum local = 2.93682e-13, global = -4.09603e-15, cumulative = 5.65413e-08
smoothSolver:  Solving for epsilon, Initial residual = 8.08451e-06, Final residual = 8.08451e-06, No Iterations 0
smoothSolver:  Solving for k, Initial residual = 1.31805e-05, Final residual = 4.87549e-06, No Iterations 1
ExecutionTime = 2 s  ClockTime = 2 s

Time = 0.00018

Courant Number mean: 0.000247446 max: 0.223365
smoothSolver:  Solving for Ux, Initial residual = 0.000923879, Final residual = 3.18699e-06, No Iterations 1
smoothSolver:  Solving for Uy, Initial residual = 0.00102074, Final residual = 1.69156e-06, No Iterations 1
GAMG:  Solving for p, Initial residual = 0.0101176, Final residual = 0.000586355, No Iterations 2
time step continuity errors : sum local = 1.73534e-10, global = -1.5775e-12, cumulative = 5.65397e-08
GAMG:  Solving for p, Initial residual = 0.00245599, Final residual = 9.5731e-07, No Iterations 55
time step continuity errors : sum local = 2.82622e-13, global = -3.36864e-15, cumulative = 5.65397e-08
smoothSolver:  Solving for epsilon, Initial residual = 8.13756e-06, Final residual = 8.13756e-06, No Iterations 0
smoothSolver:  Solving for k, Initial residual = 1.3255e-05, Final residual = 4.89943e-06, No Iterations 1
ExecutionTime = 2.03 s  ClockTime = 2 s

Time = 0.0001825

Courant Number mean: 0.000247443 max: 0.223168
smoothSolver:  Solving for Ux, Initial residual = 0.000907932, Final residual = 3.25529e-06, No Iterations 1
smoothSolver:  Solving for Uy, Initial residual = 0.00100763, Final residual = 1.71431e-06, No Iterations 1
GAMG:  Solving for p, Initial residual = 0.00942443, Final residual = 0.00059545, No Iterations 2
time step continuity errors : sum local = 1.75055e-10, global = -1.67225e-12, cumulative = 5.65381e-08
GAMG:  Solving for p, Initial residual = 0.00233339, Final residual = 9.48299e-07, No Iterations 62
time step continuity errors : sum local = 2.78132e-13, global = -5.57999e-15, cumulative = 5.65381e-08
smoothSolver:  Solving for epsilon, Initial residual = 8.19053e-06, Final residual = 8.19053e-06, No Iterations 0
smoothSolver:  Solving for k, Initial residual = 1.33401e-05, Final residual = 4.92342e-06, No Iterations 1
ExecutionTime = 2.05 s  ClockTime = 2 s

Time = 0.000185

Courant Number mean: 0.00024744 max: 0.222745
smoothSolver:  Solving for Ux, Initial residual = 0.000892478, Final residual = 3.27378e-06, No Iterations 1
smoothSolver:  Solving for Uy, Initial residual = 0.00099503, Final residual = 1.67129e-06, No Iterations 1
GAMG:  Solving for p, Initial residual = 0.00932244, Final residual = 0.000582113, No Iterations 2
time step continuity errors : sum local = 1.70074e-10, global = -1.72076e-12, cumulative = 5.65363e-08
GAMG:  Solving for p, Initial residual = 0.00231874, Final residual = 9.8764e-07, No Iterations 59
time step continuity errors : sum local = 2.88e-13, global = -3.66597e-15, cumulative = 5.65363e-08
smoothSolver:  Solving for epsilon, Initial residual = 8.24492e-06, Final residual = 8.24492e-06, No Iterations 0
smoothSolver:  Solving for k, Initial residual = 1.34322e-05, Final residual = 4.94903e-06, No Iterations 1
ExecutionTime = 2.08 s  ClockTime = 2 s

Time = 0.0001875

Courant Number mean: 0.000247436 max: 0.222167
smoothSolver:  Solving for Ux, Initial residual = 0.000877492, Final residual = 3.33937e-06, No Iterations 1
smoothSolver:  Solving for Uy, Initial residual = 0.000982797, Final residual = 1.66136e-06, No Iterations 1
GAMG:  Solving for p, Initial residual = 0.00924889, Final residual = 0.000601418, No Iterations 2
time step continuity errors : sum local = 1.74723e-10, global = -1.80617e-12, cumulative = 5.65345e-08
GAMG:  Solving for p, Initial residual = 0.00233141, Final residual = 9.52255e-07, No Iterations 59
time step continuity errors : sum local = 2.76169e-13, global = -5.45577e-15, cumulative = 5.65345e-08
smoothSolver:  Solving for epsilon, Initial residual = 8.29899e-06, Final residual = 8.29899e-06, No Iterations 0
smoothSolver:  Solving for k, Initial residual = 1.35292e-05, Final residual = 4.97529e-06, No Iterations 1
ExecutionTime = 2.11 s  ClockTime = 2 s

Time = 0.00019

Courant Number mean: 0.000247432 max: 0.221542
smoothSolver:  Solving for Ux, Initial residual = 0.000862939, Final residual = 3.37551e-06, No Iterations 1
smoothSolver:  Solving for Uy, Initial residual = 0.000970964, Final residual = 1.67092e-06, No Iterations 1
GAMG:  Solving for p, Initial residual = 0.00930965, Final residual = 0.000619156, No Iterations 2
time step continuity errors : sum local = 1.78946e-10, global = -1.66937e-12, cumulative = 5.65329e-08
GAMG:  Solving for p, Initial residual = 0.00241012, Final residual = 9.7728e-07, No Iterations 59
time step continuity errors : sum local = 2.82042e-13, global = -4.24364e-15, cumulative = 5.65329e-08
smoothSolver:  Solving for epsilon, Initial residual = 8.35443e-06, Final residual = 8.35443e-06, No Iterations 0
smoothSolver:  Solving for k, Initial residual = 1.36305e-05, Final residual = 5.00236e-06, No Iterations 1
ExecutionTime = 2.13 s  ClockTime = 2 s

Time = 0.0001925

Courant Number mean: 0.000247429 max: 0.220876
smoothSolver:  Solving for Ux, Initial residual = 0.000848823, Final residual = 3.43849e-06, No Iterations 1
smoothSolver:  Solving for Uy, Initial residual = 0.00095945, Final residual = 1.67893e-06, No Iterations 1
GAMG:  Solving for p, Initial residual = 0.00941531, Final residual = 0.000637795, No Iterations 2
time step continuity errors : sum local = 1.83438e-10, global = -1.65851e-12, cumulative = 5.65312e-08
GAMG:  Solving for p, Initial residual = 0.00246783, Final residual = 9.28024e-07, No Iterations 59
time step continuity errors : sum local = 2.66585e-13, global = -5.18232e-15, cumulative = 5.65312e-08
smoothSolver:  Solving for epsilon, Initial residual = 8.40962e-06, Final residual = 8.40962e-06, No Iterations 0
smoothSolver:  Solving for k, Initial residual = 1.37348e-05, Final residual = 5.03047e-06, No Iterations 1
ExecutionTime = 2.16 s  ClockTime = 2 s

Time = 0.000195

Courant Number mean: 0.000247425 max: 0.220226
smoothSolver:  Solving for Ux, Initial residual = 0.000835113, Final residual = 3.48867e-06, No Iterations 1
smoothSolver:  Solving for Uy, Initial residual = 0.00094827, Final residual = 1.70726e-06, No Iterations 1
GAMG:  Solving for p, Initial residual = 0.00939741, Final residual = 0.000657596, No Iterations 2
time step continuity errors : sum local = 1.88309e-10, global = -1.59298e-12, cumulative = 5.65296e-08
GAMG:  Solving for p, Initial residual = 0.00257462, Final residual = 9.42183e-07, No Iterations 59
time step continuity errors : sum local = 2.6954e-13, global = -4.52803e-15, cumulative = 5.65296e-08
smoothSolver:  Solving for epsilon, Initial residual = 8.46672e-06, Final residual = 8.46672e-06, No Iterations 0
smoothSolver:  Solving for k, Initial residual = 1.38405e-05, Final residual = 5.05953e-06, No Iterations 1
ExecutionTime = 2.19 s  ClockTime = 2 s

Time = 0.0001975

Courant Number mean: 0.000247421 max: 0.219581
smoothSolver:  Solving for Ux, Initial residual = 0.00082177, Final residual = 3.55508e-06, No Iterations 1
smoothSolver:  Solving for Uy, Initial residual = 0.000937356, Final residual = 1.73525e-06, No Iterations 1
GAMG:  Solving for p, Initial residual = 0.00945865, Final residual = 0.000674518, No Iterations 2
time step continuity errors : sum local = 1.9238e-10, global = -1.58937e-12, cumulative = 5.6528e-08
GAMG:  Solving for p, Initial residual = 0.00264051, Final residual = 9.31279e-07, No Iterations 59
time step continuity errors : sum local = 2.65412e-13, global = -5.04955e-15, cumulative = 5.6528e-08
smoothSolver:  Solving for epsilon, Initial residual = 8.52427e-06, Final residual = 8.52427e-06, No Iterations 0
smoothSolver:  Solving for k, Initial residual = 1.39466e-05, Final residual = 5.08952e-06, No Iterations 1
ExecutionTime = 2.21 s  ClockTime = 2 s

Time = 0.0002

Courant Number mean: 0.000247418 max: 0.218974
smoothSolver:  Solving for Ux, Initial residual = 0.000808761, Final residual = 3.61453e-06, No Iterations 1
smoothSolver:  Solving for Uy, Initial residual = 0.000926754, Final residual = 1.78529e-06, No Iterations 1
GAMG:  Solving for p, Initial residual = 0.00952876, Final residual = 0.000697241, No Iterations 2
time step continuity errors : sum local = 1.98145e-10, global = -1.55846e-12, cumulative = 5.65264e-08
GAMG:  Solving for p, Initial residual = 0.00273938, Final residual = 9.9682e-07, No Iterations 58
time step continuity errors : sum local = 2.83132e-13, global = -5.04696e-15, cumulative = 5.65264e-08
smoothSolver:  Solving for epsilon, Initial residual = 8.58339e-06, Final residual = 8.58339e-06, No Iterations 0
smoothSolver:  Solving for k, Initial residual = 1.40511e-05, Final residual = 5.12038e-06, No Iterations 1
ExecutionTime = 2.23 s  ClockTime = 2 s

Time = 0.0002025

Courant Number mean: 0.000247414 max: 0.218389
smoothSolver:  Solving for Ux, Initial residual = 0.000796092, Final residual = 3.6899e-06, No Iterations 1
smoothSolver:  Solving for Uy, Initial residual = 0.000916498, Final residual = 1.84787e-06, No Iterations 1
GAMG:  Solving for p, Initial residual = 0.00954433, Final residual = 0.000710675, No Iterations 2
time step continuity errors : sum local = 2.01256e-10, global = -1.54187e-12, cumulative = 5.65249e-08
GAMG:  Solving for p, Initial residual = 0.00277787, Final residual = 9.38614e-07, No Iterations 59
time step continuity errors : sum local = 2.65673e-13, global = -4.935e-15, cumulative = 5.65249e-08
smoothSolver:  Solving for epsilon, Initial residual = 8.64292e-06, Final residual = 8.64292e-06, No Iterations 0
smoothSolver:  Solving for k, Initial residual = 1.41532e-05, Final residual = 5.15214e-06, No Iterations 1
ExecutionTime = 2.26 s  ClockTime = 2 s

Time = 0.000205

Courant Number mean: 0.00024741 max: 0.21785
smoothSolver:  Solving for Ux, Initial residual = 0.00078368, Final residual = 3.75934e-06, No Iterations 1
smoothSolver:  Solving for Uy, Initial residual = 0.00090657, Final residual = 1.9195e-06, No Iterations 1
GAMG:  Solving for p, Initial residual = 0.00951199, Final residual = 0.000728947, No Iterations 2
time step continuity errors : sum local = 2.05716e-10, global = -1.52673e-12, cumulative = 5.65234e-08
GAMG:  Solving for p, Initial residual = 0.00283044, Final residual = 9.88595e-07, No Iterations 58
time step continuity errors : sum local = 2.78855e-13, global = -4.99624e-15, cumulative = 5.65234e-08
smoothSolver:  Solving for epsilon, Initial residual = 8.70419e-06, Final residual = 8.70419e-06, No Iterations 0
smoothSolver:  Solving for k, Initial residual = 1.42539e-05, Final residual = 5.1845e-06, No Iterations 1
ExecutionTime = 2.29 s  ClockTime = 2 s

Time = 0.0002075

Courant Number mean: 0.000247406 max: 0.217338
smoothSolver:  Solving for Ux, Initial residual = 0.000771577, Final residual = 3.83628e-06, No Iterations 1
smoothSolver:  Solving for Uy, Initial residual = 0.000896826, Final residual = 2.00034e-06, No Iterations 1
GAMG:  Solving for p, Initial residual = 0.00945077, Final residual = 0.00073978, No Iterations 2
time step continuity errors : sum local = 2.08001e-10, global = -1.52228e-12, cumulative = 5.65218e-08
GAMG:  Solving for p, Initial residual = 0.00285118, Final residual = 9.33722e-07, No Iterations 59
time step continuity errors : sum local = 2.62388e-13, global = -4.74469e-15, cumulative = 5.65218e-08
smoothSolver:  Solving for epsilon, Initial residual = 8.76634e-06, Final residual = 8.76634e-06, No Iterations 0
smoothSolver:  Solving for k, Initial residual = 1.4356e-05, Final residual = 5.21776e-06, No Iterations 1
ExecutionTime = 2.31 s  ClockTime = 2 s

Time = 0.00021

Courant Number mean: 0.000247402 max: 0.216871
smoothSolver:  Solving for Ux, Initial residual = 0.000759784, Final residual = 3.91044e-06, No Iterations 1
[...]
smoothSolver:  Solving for Uy, Initial residual = 0.000588627, Final residual = 6.64149e-06, No Iterations 2
GAMG:  Solving for p, Initial residual = 0.0189423, Final residual = 0.00156516, No Iterations 3
time step continuity errors : sum local = 3.83389e-10, global = -5.65188e-14, cumulative = 5.64945e-08
GAMG:  Solving for p, Initial residual = 0.0139612, Final residual = 9.58876e-07, No Iterations 116
time step continuity errors : sum local = 2.35231e-13, global = -2.54859e-15, cumulative = 5.64945e-08
smoothSolver:  Solving for epsilon, Initial residual = 7.97862e-06, Final residual = 7.97862e-06, No Iterations 0
smoothSolver:  Solving for k, Initial residual = 1.92367e-05, Final residual = 6.42107e-06, No Iterations 1
ExecutionTime = 4.19 s  ClockTime = 4 s

Time = 0.00036

Courant Number mean: 0.000247052 max: 0.210844
smoothSolver:  Solving for Ux, Initial residual = 0.000364689, Final residual = 7.59531e-06, No Iterations 1
smoothSolver:  Solving for Uy, Initial residual = 0.000586178, Final residual = 6.61116e-06, No Iterations 2
GAMG:  Solving for p, Initial residual = 0.0210281, Final residual = 0.00168158, No Iterations 3
time step continuity errors : sum local = 4.11824e-10, global = 3.49024e-13, cumulative = 5.64948e-08
GAMG:  Solving for p, Initial residual = 0.0158378, Final residual = 9.84259e-07, No Iterations 119
time step continuity errors : sum local = 2.41579e-13, global = 2.53446e-15, cumulative = 5.64948e-08
smoothSolver:  Solving for epsilon, Initial residual = 8.03066e-06, Final residual = 8.03066e-06, No Iterations 0
smoothSolver:  Solving for k, Initial residual = 1.94021e-05, Final residual = 6.48188e-06, No Iterations 1
ExecutionTime = 4.23 s  ClockTime = 4 s

Time = 0.0003625

Courant Number mean: 0.000247044 max: 0.21069
smoothSolver:  Solving for Ux, Initial residual = 0.000361562, Final residual = 7.66062e-06, No Iterations 1
smoothSolver:  Solving for Uy, Initial residual = 0.000585056, Final residual = 7.27259e-06, No Iterations 2
GAMG:  Solving for p, Initial residual = 0.0225814, Final residual = 0.0018768, No Iterations 3
time step continuity errors : sum local = 4.59833e-10, global = -1.72838e-13, cumulative = 5.64947e-08
GAMG:  Solving for p, Initial residual = 0.0181188, Final residual = 9.82536e-07, No Iterations 120
time step continuity errors : sum local = 2.41111e-13, global = -2.61861e-15, cumulative = 5.64947e-08
smoothSolver:  Solving for epsilon, Initial residual = 8.08466e-06, Final residual = 8.08466e-06, No Iterations 0
smoothSolver:  Solving for k, Initial residual = 1.95754e-05, Final residual = 6.54915e-06, No Iterations 1
ExecutionTime = 4.28 s  ClockTime = 4 s

Time = 0.000365

Courant Number mean: 0.000247035 max: 0.210496
smoothSolver:  Solving for Ux, Initial residual = 0.00035868, Final residual = 7.81234e-06, No Iterations 1
smoothSolver:  Solving for Uy, Initial residual = 0.000583228, Final residual = 7.32827e-06, No Iterations 2
GAMG:  Solving for p, Initial residual = 0.0254388, Final residual = 0.00211369, No Iterations 3
time step continuity errors : sum local = 5.1811e-10, global = 3.24718e-13, cumulative = 5.6495e-08
GAMG:  Solving for p, Initial residual = 0.020995, Final residual = 9.7408e-07, No Iterations 124
time step continuity errors : sum local = 2.3942e-13, global = 2.52813e-15, cumulative = 5.6495e-08
smoothSolver:  Solving for epsilon, Initial residual = 8.13989e-06, Final residual = 8.13989e-06, No Iterations 0
smoothSolver:  Solving for k, Initial residual = 1.97519e-05, Final residual = 6.61912e-06, No Iterations 1
ExecutionTime = 4.32 s  ClockTime = 4 s

Time = 0.0003675

Courant Number mean: 0.000247027 max: 0.21029
smoothSolver:  Solving for Ux, Initial residual = 0.000355726, Final residual = 7.87507e-06, No Iterations 1
smoothSolver:  Solving for Uy, Initial residual = 0.000582828, Final residual = 8.19082e-06, No Iterations 2
GAMG:  Solving for p, Initial residual = 0.0280706, Final residual = 0.0023595, No Iterations 3
time step continuity errors : sum local = 5.79264e-10, global = -3.46672e-13, cumulative = 5.64946e-08
GAMG:  Solving for p, Initial residual = 0.0244442, Final residual = 9.76112e-07, No Iterations 125
time step continuity errors : sum local = 2.40162e-13, global = -2.59399e-15, cumulative = 5.64946e-08
smoothSolver:  Solving for epsilon, Initial residual = 8.19716e-06, Final residual = 8.19716e-06, No Iterations 0
smoothSolver:  Solving for k, Initial residual = 1.99309e-05, Final residual = 6.69526e-06, No Iterations 1
ExecutionTime = 4.37 s  ClockTime = 4 s

Time = 0.00037

Courant Number mean: 0.000247018 max: 0.210024
smoothSolver:  Solving for Ux, Initial residual = 0.000353117, Final residual = 8.10868e-06, No Iterations 1
smoothSolver:  Solving for Uy, Initial residual = 0.000581697, Final residual = 8.40987e-06, No Iterations 2
GAMG:  Solving for p, Initial residual = 0.0321702, Final residual = 0.0027911, No Iterations 3
time step continuity errors : sum local = 6.86322e-10, global = 2.75538e-13, cumulative = 5.64949e-08
GAMG:  Solving for p, Initial residual = 0.0288978, Final residual = 9.82851e-07, No Iterations 129
time step continuity errors : sum local = 2.42512e-13, global = 2.54736e-15, cumulative = 5.64949e-08
smoothSolver:  Solving for epsilon, Initial residual = 8.25557e-06, Final residual = 8.25557e-06, No Iterations 0
smoothSolver:  Solving for k, Initial residual = 2.01091e-05, Final residual = 6.77248e-06, No Iterations 1
ExecutionTime = 4.41 s  ClockTime = 4 s

Time = 0.0003725

Courant Number mean: 0.000247009 max: 0.209731
smoothSolver:  Solving for Ux, Initial residual = 0.000350212, Final residual = 8.17278e-06, No Iterations 1
smoothSolver:  Solving for Uy, Initial residual = 0.000582197, Final residual = 9.58072e-06, No Iterations 2
GAMG:  Solving for p, Initial residual = 0.0365656, Final residual = 0.00309678, No Iterations 3
time step continuity errors : sum local = 7.63388e-10, global = -6.09017e-13, cumulative = 5.64943e-08
GAMG:  Solving for p, Initial residual = 0.0341041, Final residual = 9.78555e-07, No Iterations 130
time step continuity errors : sum local = 2.41786e-13, global = -2.60227e-15, cumulative = 5.64943e-08
smoothSolver:  Solving for epsilon, Initial residual = 8.31566e-06, Final residual = 8.31566e-06, No Iterations 0
smoothSolver:  Solving for k, Initial residual = 2.02859e-05, Final residual = 6.85531e-06, No Iterations 1
ExecutionTime = 4.46 s  ClockTime = 5 s

Time = 0.000375

Courant Number mean: 0.000247 max: 0.209346
smoothSolver:  Solving for Ux, Initial residual = 0.000347887, Final residual = 8.53747e-06, No Iterations 1
smoothSolver:  Solving for Uy, Initial residual = 0.000581925, Final residual = 6.35174e-06, No Iterations 3
GAMG:  Solving for p, Initial residual = 0.0443036, Final residual = 0.00423101, No Iterations 3
time step continuity errors : sum local = 1.04641e-09, global = 1.63719e-13, cumulative = 5.64945e-08
GAMG:  Solving for p, Initial residual = 0.0449038, Final residual = 9.80517e-07, No Iterations 136
time step continuity errors : sum local = 2.43773e-13, global = 2.60663e-15, cumulative = 5.64945e-08
smoothSolver:  Solving for epsilon, Initial residual = 8.37632e-06, Final residual = 8.37632e-06, No Iterations 0
smoothSolver:  Solving for k, Initial residual = 2.04644e-05, Final residual = 6.93945e-06, No Iterations 1
ExecutionTime = 4.51 s  ClockTime = 5 s

Time = 0.0003775

Courant Number mean: 0.000246991 max: 0.208871
smoothSolver:  Solving for Ux, Initial residual = 0.000346038, Final residual = 8.83787e-06, No Iterations 1
smoothSolver:  Solving for Uy, Initial residual = 0.000585844, Final residual = 7.85588e-06, No Iterations 3
GAMG:  Solving for p, Initial residual = 0.0571095, Final residual = 0.00531566, No Iterations 3
time step continuity errors : sum local = 1.32334e-09, global = -1.30454e-12, cumulative = 5.64932e-08
GAMG:  Solving for p, Initial residual = 0.0585984, Final residual = 9.72945e-07, No Iterations 144
time step continuity errors : sum local = 2.43211e-13, global = -2.48989e-15, cumulative = 5.64932e-08
smoothSolver:  Solving for epsilon, Initial residual = 8.43911e-06, Final residual = 8.43911e-06, No Iterations 0
smoothSolver:  Solving for k, Initial residual = 2.0649e-05, Final residual = 7.03532e-06, No Iterations 1
ExecutionTime = 4.56 s  ClockTime = 5 s

Time = 0.00038

Courant Number mean: 0.000246981 max: 0.208165
smoothSolver:  Solving for Ux, Initial residual = 0.000344701, Final residual = 9.82145e-06, No Iterations 1
smoothSolver:  Solving for Uy, Initial residual = 0.000590022, Final residual = 9.48095e-06, No Iterations 3
GAMG:  Solving for p, Initial residual = 0.0736062, Final residual = 0.00592784, No Iterations 4
time step continuity errors : sum local = 1.48868e-09, global = -4.82128e-13, cumulative = 5.64927e-08
GAMG:  Solving for p, Initial residual = 0.0802744, Final residual = 9.58224e-07, No Iterations 153
time step continuity errors : sum local = 2.43198e-13, global = 2.30422e-15, cumulative = 5.64927e-08
smoothSolver:  Solving for epsilon, Initial residual = 8.50103e-06, Final residual = 8.50103e-06, No Iterations 0
smoothSolver:  Solving for k, Initial residual = 2.086e-05, Final residual = 7.14537e-06, No Iterations 1
ExecutionTime = 4.61 s  ClockTime = 5 s

Time = 0.0003825

Courant Number mean: 0.000246971 max: 0.206823
smoothSolver:  Solving for Ux, Initial residual = 0.000343242, Final residual = 5.79443e-06, No Iterations 2
smoothSolver:  Solving for Uy, Initial residual = 0.00060125, Final residual = 9.48465e-06, No Iterations 4
GAMG:  Solving for p, Initial residual = 0.10765, Final residual = 0.00984593, No Iterations 4
time step continuity errors : sum local = 2.52428e-09, global = -8.41421e-12, cumulative = 5.64843e-08
GAMG:  Solving for p, Initial residual = 0.127628, Final residual = 9.54781e-07, No Iterations 159
time step continuity errors : sum local = 2.48723e-13, global = -2.45264e-15, cumulative = 5.64843e-08
smoothSolver:  Solving for epsilon, Initial residual = 8.56635e-06, Final residual = 8.56635e-06, No Iterations 0
smoothSolver:  Solving for k, Initial residual = 2.11792e-05, Final residual = 7.33812e-06, No Iterations 1
ExecutionTime = 4.67 s  ClockTime = 5 s

Time = 0.000385

Courant Number mean: 0.000246961 max: 0.204896
smoothSolver:  Solving for Ux, Initial residual = 0.000348218, Final residual = 7.84348e-06, No Iterations 2
smoothSolver:  Solving for Uy, Initial residual = 0.00062987, Final residual = 7.48965e-06, No Iterations 6
GAMG:  Solving for p, Initial residual = 0.17192, Final residual = 0.0161762, No Iterations 4
time step continuity errors : sum local = 4.35126e-09, global = -5.7251e-12, cumulative = 5.64785e-08
GAMG:  Solving for p, Initial residual = 0.204184, Final residual = 9.69723e-07, No Iterations 172
time step continuity errors : sum local = 2.72799e-13, global = 2.76072e-15, cumulative = 5.64785e-08
smoothSolver:  Solving for epsilon, Initial residual = 8.62931e-06, Final residual = 8.62931e-06, No Iterations 0
smoothSolver:  Solving for k, Initial residual = 2.17726e-05, Final residual = 7.71257e-06, No Iterations 1
ExecutionTime = 4.73 s  ClockTime = 5 s

Time = 0.0003875

Courant Number mean: 0.000246951 max: 0.201042
smoothSolver:  Solving for Ux, Initial residual = 0.000358001, Final residual = 7.98687e-06, No Iterations 3
smoothSolver:  Solving for Uy, Initial residual = 0.00068408, Final residual = 8.06191e-06, No Iterations 8
GAMG:  Solving for p, Initial residual = 0.274489, Final residual = 0.0246191, No Iterations 5
time step continuity errors : sum local = 7.31966e-09, global = -3.82307e-11, cumulative = 5.64403e-08
GAMG:  Solving for p, Initial residual = 0.328605, Final residual = 9.99277e-07, No Iterations 185
time step continuity errors : sum local = 3.21952e-13, global = -2.92165e-15, cumulative = 5.64403e-08
smoothSolver:  Solving for epsilon, Initial residual = 8.70854e-06, Final residual = 8.70854e-06, No Iterations 0
smoothSolver:  Solving for k, Initial residual = 2.34314e-05, Final residual = 8.92682e-06, No Iterations 1
ExecutionTime = 4.79 s  ClockTime = 5 s

Time = 0.00039

Courant Number mean: 0.000246941 max: 0.194228
smoothSolver:  Solving for Ux, Initial residual = 0.000382875, Final residual = 7.05017e-06, No Iterations 5
smoothSolver:  Solving for Uy, Initial residual = 0.00079857, Final residual = 8.72747e-06, No Iterations 11
GAMG:  Solving for p, Initial residual = 0.433807, Final residual = 0.0392987, No Iterations 6
time step continuity errors : sum local = 1.43743e-08, global = -3.02838e-11, cumulative = 5.641e-08
GAMG:  Solving for p, Initial residual = 0.473104, Final residual = 9.66878e-07, No Iterations 196
time step continuity errors : sum local = 4.31803e-13, global = 4.39259e-15, cumulative = 5.641e-08
smoothSolver:  Solving for epsilon, Initial residual = 8.79918e-06, Final residual = 8.79918e-06, No Iterations 0
smoothSolver:  Solving for k, Initial residual = 2.94185e-05, Final residual = 8.41222e-06, No Iterations 2
ExecutionTime = 4.86 s  ClockTime = 5 s

Time = 0.0003925

Courant Number mean: 0.000246944 max: 0.178785
smoothSolver:  Solving for Ux, Initial residual = 0.000460308, Final residual = 8.81474e-06, No Iterations 7
smoothSolver:  Solving for Uy, Initial residual = 0.00109598, Final residual = 8.50466e-06, No Iterations 16
GAMG:  Solving for p, Initial residual = 0.601205, Final residual = 0.0557197, No Iterations 8
time step continuity errors : sum local = 2.98098e-08, global = -2.55873e-10, cumulative = 5.61542e-08
GAMG:  Solving for p, Initial residual = 0.626536, Final residual = 9.73682e-07, No Iterations 208
time step continuity errors : sum local = 7.02813e-13, global = -5.31229e-15, cumulative = 5.61541e-08
smoothSolver:  Solving for epsilon, Initial residual = 9.16192e-06, Final residual = 9.16192e-06, No Iterations 0
smoothSolver:  Solving for k, Initial residual = 5.64075e-05, Final residual = 8.52013e-06, No Iterations 6
ExecutionTime = 4.93 s  ClockTime = 5 s

Time = 0.000395

Courant Number mean: 0.000246969 max: 0.225601
smoothSolver:  Solving for Ux, Initial residual = 0.000741612, Final residual = 9.40771e-06, No Iterations 13
smoothSolver:  Solving for Uy, Initial residual = 0.00217194, Final residual = 9.47739e-06, No Iterations 32
GAMG:  Solving for p, Initial residual = 0.756231, Final residual = 0.0719117, No Iterations 14
time step continuity errors : sum local = 6.30692e-08, global = -1.11384e-10, cumulative = 5.60428e-08
GAMG:  Solving for p, Initial residual = 0.647842, Final residual = 9.90858e-07, No Iterations 225
time step continuity errors : sum local = 1.56621e-12, global = 7.94865e-15, cumulative = 5.60428e-08
smoothSolver:  Solving for epsilon, Initial residual = 1.13529e-05, Final residual = 4.25395e-06, No Iterations 1
smoothSolver:  Solving for k, Initial residual = 0.000190662, Final residual = 9.29596e-06, No Iterations 22
ExecutionTime = 5.01 s  ClockTime = 5 s

Time = 0.0003975

Courant Number mean: 0.000247153 max: 0.407733
smoothSolver:  Solving for Ux, Initial residual = 0.0024632, Final residual = 9.79498e-06, No Iterations 69
smoothSolver:  Solving for Uy, Initial residual = 0.00758329, Final residual = 9.95323e-06, No Iterations 117
GAMG:  Solving for p, Initial residual = 0.80498, Final residual = 0.080401, No Iterations 18
time step continuity errors : sum local = 1.41032e-07, global = -1.26441e-09, cumulative = 5.47784e-08
GAMG:  Solving for p, Initial residual = 0.607304, Final residual = 9.81469e-07, No Iterations 276
time step continuity errors : sum local = 3.76294e-12, global = -1.05337e-14, cumulative = 5.47784e-08
smoothSolver:  Solving for epsilon, Initial residual = 3.77966e-05, Final residual = 9.72485e-06, No Iterations 3
smoothSolver:  Solving for k, Initial residual = 0.000936298, Final residual = 9.86236e-06, No Iterations 99
ExecutionTime = 5.12 s  ClockTime = 5 s

Time = 0.0004

Courant Number mean: 0.000247849 max: 1.49329
smoothSolver:  Solving for Ux, Initial residual = 0.0103868, Final residual = 9.97036e-06, No Iterations 271
smoothSolver:  Solving for Uy, Initial residual = 0.021768, Final residual = 9.97072e-06, No Iterations 375
GAMG:  Solving for p, Initial residual = 0.831778, Final residual = 0.08153, No Iterations 25
time step continuity errors : sum local = 3.04079e-07, global = 2.39724e-09, cumulative = 5.71756e-08
GAMG:  Solving for p, Initial residual = 0.530555, Final residual = 9.84188e-07, No Iterations 245
time step continuity errors : sum local = 1.13115e-11, global = 7.66365e-15, cumulative = 5.71756e-08
smoothSolver:  Solving for epsilon, Initial residual = 0.00157803, Final residual = 9.98817e-06, No Iterations 237
smoothSolver:  Solving for k, Initial residual = 0.00670629, Final residual = 9.94382e-06, No Iterations 398
ExecutionTime = 5.28 s  ClockTime = 5 s

Time = 0.0004025

Courant Number mean: 0.000251354 max: 5.17145
smoothSolver:  Solving for Ux, Initial residual = 0.0433121, Final residual = 9.95936e-06, No Iterations 222
smoothSolver:  Solving for Uy, Initial residual = 0.102443, Final residual = 9.85776e-06, No Iterations 448
GAMG:  Solving for p, Initial residual = 0.832414, Final residual = 0.0781906, No Iterations 5
time step continuity errors : sum local = 3.18934e-06, global = -1.28174e-08, cumulative = 4.43582e-08
GAMG:  Solving for p, Initial residual = 0.49707, Final residual = 9.84961e-07, No Iterations 148
time step continuity errors : sum local = 8.92705e-11, global = 9.85844e-13, cumulative = 4.43592e-08
smoothSolver:  Solving for epsilon, Initial residual = 0.0761176, Final residual = 9.97504e-06, No Iterations 49
smoothSolver:  Solving for k, Initial residual = 0.0475235, Final residual = 9.86488e-06, No Iterations 387
bounding k, min: -3073.54 max: 137873 average: 1488.98
ExecutionTime = 5.39 s  ClockTime = 5 s

Time = 0.000405

Courant Number mean: 0.000271644 max: 2.4699
smoothSolver:  Solving for Ux, Initial residual = 0.989726, Final residual = 9.99929e-06, No Iterations 231
smoothSolver:  Solving for Uy, Initial residual = 0.742689, Final residual = 2.6204e-05, No Iterations 1000
GAMG:  Solving for p, Initial residual = 0.976641, Final residual = 0.0707684, No Iterations 4
time step continuity errors : sum local = 2.2714e-05, global = 3.73717e-08, cumulative = 8.17309e-08
GAMG:  Solving for p, Initial residual = 0.115623, Final residual = 9.58188e-07, No Iterations 87
time step continuity errors : sum local = 3.22377e-09, global = 9.24088e-11, cumulative = 8.18233e-08
#0  Foam::error::printStack(Foam::Ostream&) at ??:?
#1  Foam::sigFpe::sigHandler(int) at ??:?
#2  ? in "/lib/x86_64-linux-gnu/libc.so.6"
#3  Foam::lduMatrix::residual(Foam::Field<double>&, Foam::Field<double> const&, Foam::Field<double> const&, Foam::FieldField<Foam::Field, double> const&, Foam::UPtrList<Foam::lduInterfaceField const> const&, unsigned char) const at ??:?
#4  Foam::lduMatrix::residual(Foam::Field<double> const&, Foam::Field<double> const&, Foam::FieldField<Foam::Field, double> const&, Foam::UPtrList<Foam::lduInterfaceField const> const&, unsigned char) const at ??:?
#5  Foam::smoothSolver::solve(Foam::Field<double>&, Foam::Field<double> const&, unsigned char) const at ??:?
#6  Foam::fvMatrix<double>::solveSegregated(Foam::dictionary const&) at ??:?
#7  Foam::fvMatrix<double>::solve(Foam::dictionary const&) in "/opt/openfoam8/platforms/linux64GccDPInt32Opt/bin/pisoFoam"
#8  Foam::fvMatrix<double>::solve() in "/opt/openfoam8/platforms/linux64GccDPInt32Opt/bin/pisoFoam"
#9  Foam::SolverPerformance<double> Foam::solve<double>(Foam::tmp<Foam::fvMatrix<double> > const&) at ??:?
#10  Foam::RASModels::kEpsilon<Foam::IncompressibleMomentumTransportModel<Foam::transportModel> >::correct() at ??:?
#11  ? in "/opt/openfoam8/platforms/linux64GccDPInt32Opt/bin/pisoFoam"
#12  __libc_start_main in "/lib/x86_64-linux-gnu/libc.so.6"
#13  ? in "/opt/openfoam8/platforms/linux64GccDPInt32Opt/bin/pisoFoam"
