/*---------------------------------------------------------------------------*\
  =========                 |
  \\      /  F ield         | OpenFOAM: The Open Source CFD Toolbox
   \\    /   O peration     | Website:  https://openfoam.org
    \\  /    A nd           | Version:  8
     \\/     M anipulation  |
\*---------------------------------------------------------------------------*/
Build  : 8-9b73cf21a682
Exec   : simpleFoam
Date   : Oct 12 2020
Time   : 11:58:03
Host   : "neowind"
PID    : 292174
I/O    : uncollated
Case   : /home/sbkimwind/Work/git/openfoam_seo/of/org/jbk2/tower_lon_piso1
nProcs : 1
sigFpe : Enabling floating point exception trapping (FOAM_SIGFPE).
fileModificationChecking : Monitoring run-time modified files using timeStampMaster (fileModificationSkew 10)
allowSystemOperations : Allowing user-supplied system call operations

// * * * * * * * * * * * * * * * * * * * * * * * * * * * * * * * * * * * * * //
Create time

Create mesh for time = 0


SIMPLE: Convergence criteria found
        p: tolerance 0.01
        U: tolerance 0.001
        "(k|epsilon|omega|f|v2)": tolerance 0.001

Reading field p

Reading field U

Reading/calculating face flux field phi

Selecting incompressible transport model Newtonian
Selecting turbulence model type RAS
Selecting RAS turbulence model kEpsilon
RAS
{
    model           kEpsilon;
    turbulence      on;
    printCoeffs     on;
    Cmu             0.09;
    C1              1.44;
    C2              1.92;
    C3              0;
    sigmak          1;
    sigmaEps        1.3;
}

No MRF models present

No finite volume options present

Starting time loop

Time = 1e-06

smoothSolver:  Solving for Ux, Initial residual = 1, Final residual = 0.000817469, No Iterations 1
smoothSolver:  Solving for Uy, Initial residual = 1, Final residual = 0.0446243, No Iterations 2
GAMG:  Solving for p, Initial residual = 1, Final residual = 0.0981861, No Iterations 5
time step continuity errors : sum local = 1.57208e-07, global = -3.24444e-08, cumulative = -3.24444e-08
smoothSolver:  Solving for epsilon, Initial residual = 0.0713316, Final residual = 0.00447508, No Iterations 3
smoothSolver:  Solving for k, Initial residual = 1, Final residual = 0.075528, No Iterations 2
ExecutionTime = 0.03 s  ClockTime = 0 s

Time = 2e-06

smoothSolver:  Solving for Ux, Initial residual = 0.411422, Final residual = 0.0153769, No Iterations 2
smoothSolver:  Solving for Uy, Initial residual = 0.647611, Final residual = 0.0242095, No Iterations 2
GAMG:  Solving for p, Initial residual = 0.635969, Final residual = 0.0599938, No Iterations 2
time step continuity errors : sum local = 4.01338e-07, global = 4.92245e-08, cumulative = 1.67802e-08
smoothSolver:  Solving for epsilon, Initial residual = 0.0382269, Final residual = 0.000981608, No Iterations 1
smoothSolver:  Solving for k, Initial residual = 0.503402, Final residual = 0.022645, No Iterations 2
ExecutionTime = 0.04 s  ClockTime = 1 s

Time = 3e-06

smoothSolver:  Solving for Ux, Initial residual = 0.234913, Final residual = 0.0155405, No Iterations 2
smoothSolver:  Solving for Uy, Initial residual = 0.599278, Final residual = 0.0318326, No Iterations 2
GAMG:  Solving for p, Initial residual = 0.166695, Final residual = 0.0135525, No Iterations 3
time step continuity errors : sum local = 1.33243e-07, global = 1.93031e-08, cumulative = 3.60833e-08
smoothSolver:  Solving for epsilon, Initial residual = 0.0353252, Final residual = 0.00346406, No Iterations 1
bounding epsilon, min: -0.712019 max: 51.7557 average: 1.17294
smoothSolver:  Solving for k, Initial residual = 0.313852, Final residual = 0.0179926, No Iterations 2
ExecutionTime = 0.04 s  ClockTime = 1 s

Time = 4e-06

smoothSolver:  Solving for Ux, Initial residual = 0.160707, Final residual = 0.0152701, No Iterations 2
smoothSolver:  Solving for Uy, Initial residual = 0.47292, Final residual = 0.0299775, No Iterations 2
GAMG:  Solving for p, Initial residual = 0.118198, Final residual = 0.00848163, No Iterations 2
time step continuity errors : sum local = 9.9673e-08, global = 1.32541e-08, cumulative = 4.93374e-08
smoothSolver:  Solving for epsilon, Initial residual = 0.0434561, Final residual = 0.00187366, No Iterations 2
smoothSolver:  Solving for k, Initial residual = 0.22981, Final residual = 0.0139791, No Iterations 2
ExecutionTime = 0.05 s  ClockTime = 1 s

Time = 5e-06

smoothSolver:  Solving for Ux, Initial residual = 0.115757, Final residual = 0.00684546, No Iterations 3
smoothSolver:  Solving for Uy, Initial residual = 0.370705, Final residual = 0.0280066, No Iterations 2
GAMG:  Solving for p, Initial residual = 0.113392, Final residual = 0.00856023, No Iterations 2
time step continuity errors : sum local = 1.0147e-07, global = -5.3107e-09, cumulative = 4.40267e-08
smoothSolver:  Solving for epsilon, Initial residual = 0.0375011, Final residual = 0.00196777, No Iterations 2
smoothSolver:  Solving for k, Initial residual = 0.159384, Final residual = 0.0101919, No Iterations 2
ExecutionTime = 0.07 s  ClockTime = 1 s

Time = 6e-06

smoothSolver:  Solving for Ux, Initial residual = 0.0955075, Final residual = 0.00582674, No Iterations 3
smoothSolver:  Solving for Uy, Initial residual = 0.302901, Final residual = 0.0274868, No Iterations 2
GAMG:  Solving for p, Initial residual = 0.101746, Final residual = 0.00855325, No Iterations 2
time step continuity errors : sum local = 9.73792e-08, global = -2.17631e-08, cumulative = 2.22636e-08
smoothSolver:  Solving for epsilon, Initial residual = 0.0238942, Final residual = 0.00163715, No Iterations 2
smoothSolver:  Solving for k, Initial residual = 0.105807, Final residual = 0.00785981, No Iterations 2
ExecutionTime = 0.07 s  ClockTime = 1 s

Time = 7e-06

smoothSolver:  Solving for Ux, Initial residual = 0.0810811, Final residual = 0.00477426, No Iterations 3
smoothSolver:  Solving for Uy, Initial residual = 0.283591, Final residual = 0.0276285, No Iterations 2
GAMG:  Solving for p, Initial residual = 0.0905303, Final residual = 0.0048649, No Iterations 3
time step continuity errors : sum local = 5.10697e-08, global = -6.54076e-09, cumulative = 1.57229e-08
smoothSolver:  Solving for epsilon, Initial residual = 0.0158041, Final residual = 0.00136077, No Iterations 2
smoothSolver:  Solving for k, Initial residual = 0.0723013, Final residual = 0.0062283, No Iterations 2
ExecutionTime = 0.08 s  ClockTime = 1 s

Time = 8e-06

smoothSolver:  Solving for Ux, Initial residual = 0.0712313, Final residual = 0.00388921, No Iterations 3
smoothSolver:  Solving for Uy, Initial residual = 0.266417, Final residual = 0.0266236, No Iterations 2
GAMG:  Solving for p, Initial residual = 0.0947043, Final residual = 0.00858235, No Iterations 2
time step continuity errors : sum local = 7.32207e-08, global = -1.34767e-08, cumulative = 2.24622e-09
smoothSolver:  Solving for epsilon, Initial residual = 0.0104982, Final residual = 0.000557512, No Iterations 3
smoothSolver:  Solving for k, Initial residual = 0.0496192, Final residual = 0.00231064, No Iterations 3
ExecutionTime = 0.09 s  ClockTime = 1 s

Time = 9e-06

smoothSolver:  Solving for Ux, Initial residual = 0.0610529, Final residual = 0.00326908, No Iterations 3
smoothSolver:  Solving for Uy, Initial residual = 0.232332, Final residual = 0.0113446, No Iterations 3
GAMG:  Solving for p, Initial residual = 0.087306, Final residual = 0.00405716, No Iterations 3
time step continuity errors : sum local = 3.30913e-08, global = -5.36433e-09, cumulative = -3.11811e-09
smoothSolver:  Solving for epsilon, Initial residual = 0.00811656, Final residual = 0.000585278, No Iterations 3
smoothSolver:  Solving for k, Initial residual = 0.0378151, Final residual = 0.00212156, No Iterations 3
ExecutionTime = 0.11 s  ClockTime = 1 s

Time = 1e-05

smoothSolver:  Solving for Ux, Initial residual = 0.0559053, Final residual = 0.00271007, No Iterations 3
smoothSolver:  Solving for Uy, Initial residual = 0.219661, Final residual = 0.0202025, No Iterations 2
GAMG:  Solving for p, Initial residual = 0.076223, Final residual = 0.00663566, No Iterations 2
time step continuity errors : sum local = 5.16327e-08, global = -7.461e-09, cumulative = -1.05791e-08
smoothSolver:  Solving for epsilon, Initial residual = 0.00675384, Final residual = 0.000608126, No Iterations 3
smoothSolver:  Solving for k, Initial residual = 0.0288985, Final residual = 0.00186815, No Iterations 3
ExecutionTime = 0.12 s  ClockTime = 1 s

End

