/*---------------------------------------------------------------------------*\
  =========                 |
  \\      /  F ield         | OpenFOAM: The Open Source CFD Toolbox
   \\    /   O peration     | Website:  https://openfoam.org
    \\  /    A nd           | Version:  8
     \\/     M anipulation  |
\*---------------------------------------------------------------------------*/
Build  : 8-9b73cf21a682
Exec   : blockMesh
Date   : Oct 11 2020
Time   : 17:28:27
Host   : "bnes"
PID    : 22450
I/O    : uncollated
Case   : /media/sbkim/2266B8F966B8CEB3/git/openfoam_seo/of/org/jbk2/tower_lon_piso
nProcs : 1
sigFpe : Enabling floating point exception trapping (FOAM_SIGFPE).
fileModificationChecking : Monitoring run-time modified files using timeStampMaster (fileModificationSkew 10)
allowSystemOperations : Allowing user-supplied system call operations

// * * * * * * * * * * * * * * * * * * * * * * * * * * * * * * * * * * * * * //
Create time

Deleting polyMesh directory
    "/media/sbkim/2266B8F966B8CEB3/git/openfoam_seo/of/org/jbk2/tower_lon_piso/constant/polyMesh"
Creating block mesh from
    "system/blockMeshDict"
Creating block edges
No non-planar block faces defined
Creating topology blocks
Creating topology patches

Creating block mesh topology
--> FOAM Warning : 
    From function Foam::polyMesh::polyMesh(const Foam::IOobject&, Foam::pointField&&, const cellShapeList&, const faceListList&, const wordList&, const Foam::PtrList<Foam::dictionary>&, const Foam::word&, const Foam::word&, bool)
    in file meshes/polyMesh/polyMeshFromShapeMesh.C at line 873
    Found 590 undefined faces in mesh; adding to default patch.

Check topology

	Basic statistics
		Number of internal faces : 8468
		Number of boundary faces : 9674
		Number of defined boundary faces : 9674
		Number of undefined boundary faces : 0
	Checking patch -> block consistency

Creating block offsets
Creating merge list ..

Creating polyMesh from blockMesh
Creating patches
Creating cells
Creating points with scale 1
    Block 0 cell size :
        i : 1
        j : 0.0516691 0.0516691 0.052083 0.052083 
        k : 0.0513857 0.0513857 0.051724 0.051724 
    Block 1 cell size :
        i : 1
        j : 0.0512703 0.0512703 0.0516691 0.0516691 
        k : 0.0513996 0.0513996 0.051724 0.051724 
    Block 2 cell size :
        i : 1
        j : 0.051687 0.051687 0.052084 0.052084 
        k : 0.0510615 0.0510615 0.0513857 0.0513857 
    Block 3 cell size :
        i : 1
        j : 0.0509049 0.0509049 0.0512703 0.0512703 
        k : 0.0514403 0.0514403 0.051724 0.051724 
    Block 4 cell size :
        i : 1
        j : 0.051308 0.051308 0.051687 0.051687 
        k : 0.051093 0.051093 0.0513996 0.0513996 
    Block 5 cell size :
        i : 1
        j : 0.0517329 0.0517329 0.052083 0.052083 
        k : 0.0507693 0.0507693 0.0510615 0.0510615 
    Block 6 cell size :
        i : 1
        j : 0.0506003 0.0506003 0.0509049 0.0509049 
        k : 0.0515159 0.0515159 0.051725 0.051725 
    Block 7 cell size :
        i : 1
        j : 0.0509553 0.0509553 0.051308 0.051308 
        k : 0.0511672 0.0511672 0.0514403 0.0514403 
    Block 8 cell size :
        i : 1
        j : 0.0513904 0.0513904 0.0517329 0.0517329 
        k : 0.0508095 0.0508095 0.051093 0.051093 
    Block 9 cell size :
        i : 1
        j : 0.0518086 0.0518086 0.052083 0.052083 
        k : 0.0505245 0.0505245 0.0507693 0.0507693 
    Block 10 cell size :
        i : 1
        j : 0.050375 0.050375 0.0506003 0.0506003 
        k : 0.0516175 0.0516175 0.051724 0.051724 
    Block 11 cell size :
        i : 1
        j : 0.0506379 0.0506379 0.0509553 0.0509553 
        k : 0.0512949 0.0512949 0.0515159 0.0515159 
    Block 12 cell size :
        i : 1
        j : 0.0510346 0.0510346 0.0513904 0.0513904 
        k : 0.0508806 0.0508806 0.0511672 0.0511672 
    Block 13 cell size :
        i : 1
        j : 0.0515176 0.0515176 0.0518086 0.0518086 
        k : 0.050553 0.050553 0.0508095 0.0508095 
    Block 14 cell size :
        i : 1
        j : 0.0518994 0.0518994 0.052084 0.052084 
        k : 0.0503362 0.0503362 0.0505245 0.0505245 
    Block 15 cell size :
        i : 1
        j : 0.0501815 0.0501815 0.050375 0.050375 
        k : 0.0516684 0.0516684 0.051724 0.051724 
    Block 16 cell size :
        i : 1
        j : 0.0503842 0.0503842 0.0506379 0.0506379 
        k : 0.0514833 0.0514833 0.0516175 0.0516175 
    Block 17 cell size :
        i : 1
        j : 0.0506585 0.0506585 0.0510346 0.0510346 
        k : 0.0510121 0.0510121 0.0512949 0.0512949 
    Block 18 cell size :
        i : 1
        j : 0.0511628 0.0511628 0.0515176 0.0515176 
        k : 0.0505737 0.0505737 0.0508806 0.0508806 
    Block 19 cell size :
        i : 1
        j : 0.0516906 0.0516906 0.0518994 0.0518994 
        k : 0.0503425 0.0503425 0.050553 0.050553 
    Block 20 cell size :
        i : 1
        j : 0.0519912 0.0519912 0.052083 0.052083 
        k : 0.0502043 0.0502043 0.0503362 0.0503362 
    Block 21 cell size :
        i : 1
        j : 0.0500926 0.0500926 0.0501815 0.0501815 
        k : 0.0517961 0.0517961 0.051724 0.051724 
    Block 22 cell size :
        i : 1
        j : 0.0501876 0.0501876 0.0503842 0.0503842 
        k : 0.0516165 0.0516165 0.0516684 0.0516684 
    Block 23 cell size :
        i : 1
        j : 0.0503279 0.0503279 0.0506585 0.0506585 
        k : 0.0512786 0.0512786 0.0514833 0.0514833 
    Block 24 cell size :
        i : 1
        j : 0.0506452 0.0506452 0.0511628 0.0511628 
        k : 0.0505785 0.0505785 0.0510121 0.0510121 
    Block 25 cell size :
        i : 1
        j : 0.0514077 0.0514077 0.0516906 0.0516906 
        k : 0.0502958 0.0502958 0.0505737 0.0505737 
    Block 26 cell size :
        i : 1
        j : 0.0518858 0.0518858 0.0519912 0.0519912 
        k : 0.0501961 0.0501961 0.0503425 0.0503425 
    Block 27 cell size :
        i : 1
        j : 0.0520691 0.0520691 0.052083 0.052083 
        k : 0.0501209 0.0501209 0.0502043 0.0502043 
    Block 28 cell size :
        i : 1
        j : 0.0500926 0.0500926 0.0500427 0.0500427 
        k : 0.051724 0.051724 0.051848 0.051848 
    Block 29 cell size :
        i : 1
        j : 0.0500919 0.0500919 0.0501876 0.0501876 
        k : 0.0518643 0.0518643 0.0517961 0.0517961 
    Block 30 cell size :
        i : 1
        j : 0.050134 0.050134 0.0503279 0.0503279 
        k : 0.0515824 0.0515824 0.0516165 0.0516165 
    Block 31 cell size :
        i : 1
        j : 0.0500765 0.0500765 0.0506452 0.0506452 
        k : 0.0508524 0.0508524 0.0512786 0.0512786 
    Block 32 cell size :
        i : 1
        j : 0.0508864 0.0508864 0.0514077 0.0514077 
        k : 0.0500858 0.0500858 0.0505785 0.0505785 
    Block 33 cell size :
        i : 1
        j : 0.051773 0.051773 0.0518858 0.0518858 
        k : 0.050131 0.050131 0.0502958 0.0502958 
    Block 34 cell size :
        i : 1
        j : 0.0520573 0.0520573 0.0520691 0.0520691 
        k : 0.0501106 0.0501106 0.0501961 0.0501961 
    Block 35 cell size :
        i : 1
        j : 0.052125 0.052125 0.052084 0.052084 
        k : 0.0500735 0.0500735 0.0501209 0.0501209 
    Block 36 cell size :
        i : 1
        j : 0.0500427 0.0500427 0.0500165 0.0500165 
        k : 0.051724 0.051724 0.051877 0.051877 
    Block 37 cell size :
        i : 1
        j : 0.0500919 0.0500919 0.0500439 0.0500439 
        k : 0.051848 0.051848 0.0519751 0.0519751 
    Block 38 cell size :
        i : 1
        j : 0.050134 0.050134 0.0500564 0.0500564 
        k : 0.0518643 0.0518643 0.0519626 0.0519626 
    Block 39 cell size :
        i : 1
        j : 0.0499465 0.0499465 0.0500765 0.0500765 
        k : 0.051645 0.051645 0.0515824 0.0515824 
    Block 40 cell size :
        i : 1
        j : 0.0490076 0.0490076 0.0508864 0.0508864 
        k : 0.0491798 0.0491798 0.0508524 0.0508524 
    Block 41 cell size :
        i : 1
        j : 0.0517353 0.0517353 0.051773 0.051773 
        k : 0.0499546 0.0499546 0.0500858 0.0500858 
    Block 42 cell size :
        i : 1
        j : 0.0520815 0.0520815 0.0520573 0.0520573 
        k : 0.0500652 0.0500652 0.050131 0.050131 
    Block 43 cell size :
        i : 1
        j : 0.052125 0.052125 0.0521731 0.0521731 
        k : 0.0501106 0.0501106 0.0500659 0.0500659 
    Block 44 cell size :
        i : 1
        j : 0.052083 0.052083 0.052158 0.052158 
        k : 0.0500735 0.0500735 0.050047 0.050047 
    Block 45 cell size :
        i : 1
        j : 0.0500165 0.0500165 0.0500035 0.0500035 
        k : 0.051724 0.051724 0.051893 0.051893 
    Block 46 cell size :
        i : 1
        j : 0.0500439 0.0500439 0.0500206 0.0500206 
        k : 0.051877 0.051877 0.052033 0.052033 
    Block 47 cell size :
        i : 1
        j : 0.0500564 0.0500564 0.0500286 0.0500286 
        k : 0.0519751 0.0519751 0.0521281 0.0521281 
    Block 48 cell size :
        i : 1
        j : 0.0499465 0.0499465 0.0499715 0.0499715 
        k : 0.0519626 0.0519626 0.0521885 0.0521885 
    Block 49 cell size :
        i : 1
        j : 0.0490076 0.0490076 0.0496727 0.0496727 
        k : 0.051645 0.051645 0.052632 0.052632 
    Block 50 cell size :
        i : 1
        j : 0.0517353 0.0517353 0.052632 0.052632 
        k : 0.0491798 0.0491798 0.0497128 0.0497128 
    Block 51 cell size :
        i : 1
        j : 0.0520815 0.0520815 0.0522434 0.0522434 
        k : 0.0499546 0.0499546 0.049981 0.049981 
    Block 52 cell size :
        i : 1
        j : 0.0521731 0.0521731 0.0522561 0.0522561 
        k : 0.0500652 0.0500652 0.0500412 0.0500412 
    Block 53 cell size :
        i : 1
        j : 0.052158 0.052158 0.052239 0.052239 
        k : 0.0500659 0.0500659 0.0500433 0.0500433 
    Block 54 cell size :
        i : 1
        j : 0.052083 0.052083 0.052176 0.052176 
        k : 0.050047 0.050047 0.0500321 0.0500321 
    Block 55 cell size :
        i : 1
        j : 0.0500035 0.0500035 0.049996 0.049996 
        k : 0.051725 0.051725 0.0519 0.0519 
    Block 56 cell size :
        i : 1
        j : 0.0500206 0.0500206 0.0500075 0.0500075 
        k : 0.051893 0.051893 0.052063 0.052063 
    Block 57 cell size :
        i : 1
        j : 0.0500286 0.0500286 0.0500158 0.0500158 
        k : 0.052033 0.052033 0.052206 0.052206 
    Block 58 cell size :
        i : 1
        j : 0.0499715 0.0499715 0.0499947 0.0499947 
        k : 0.0521281 0.0521281 0.0523461 0.0523461 
    Block 59 cell size :
        i : 1
        j : 0.0496727 0.0496727 0.0498809 0.0498809 
        k : 0.0521885 0.0521885 0.052631 0.052631 
    Block 60 cell size :
        i : 1
        j : 0.0526045 0.0526045 0.052632 0.052632 
        k : 0.052396 0.052396 0.052632 0.052632 
    Block 61 cell size :
        i : 1
        j : 0.0522434 0.0522434 0.052631 0.052631 
        k : 0.0497128 0.0497128 0.049897 0.049897 
    Block 62 cell size :
        i : 1
        j : 0.0522561 0.0522561 0.0524071 0.0524071 
        k : 0.049981 0.049981 0.0500033 0.0500033 
    Block 63 cell size :
        i : 1
        j : 0.052239 0.052239 0.052339 0.052339 
        k : 0.0500412 0.0500412 0.0500309 0.0500309 
    Block 64 cell size :
        i : 1
        j : 0.052176 0.052176 0.052273 0.052273 
        k : 0.0500433 0.0500433 0.0500312 0.0500312 
    Block 65 cell size :
        i : 1
        j : 0.052084 0.052084 0.052185 0.052185 
        k : 0.0500321 0.0500321 0.0500242 0.0500242 
    Block 66 cell size :
        i : 1
        j : 0.0514104 0.0514104 0.051724 0.051724 
        k : 0.051701 0.051701 0.052083 0.052083 
    Block 67 cell size :
        i : 1
        j : 0.049996 0.049996 0.049992 0.049992 
        k : 0.051724 0.051724 0.051903 0.051903 
    Block 68 cell size :
        i : 1
        j : 0.0500075 0.0500075 0.050002 0.050002 
        k : 0.0519 0.0519 0.052077 0.052077 
    Block 69 cell size :
        i : 1
        j : 0.0500158 0.0500158 0.0500106 0.0500106 
        k : 0.052063 0.052063 0.052241 0.052241 
    Block 70 cell size :
        i : 1
        j : 0.0499947 0.0499947 0.0500053 0.0500053 
        k : 0.052206 0.052206 0.052406 0.052406 
    Block 71 cell size :
        i : 1
        j : 0.0498809 0.0498809 0.0499598 0.0499598 
        k : 0.0523461 0.0523461 0.052632 0.052632 
    Block 72 cell size :
        i : 1
        j : 0.052545 0.052545 0.0526045 0.0526045 
        k : 0.052409 0.052409 0.052631 0.052631 
    Block 73 cell size :
        i : 1
        j : 0.0526386 0.0526386 0.052631 0.052631 
        k : 0.052147 0.052147 0.052396 0.052396 
    Block 74 cell size :
        i : 1
        j : 0.0524071 0.0524071 0.052632 0.052632 
        k : 0.049897 0.049897 0.0499701 0.0499701 
    Block 75 cell size :
        i : 1
        j : 0.052339 0.052339 0.052472 0.052472 
        k : 0.0500033 0.0500033 0.0500137 0.0500137 
    Block 76 cell size :
        i : 1
        j : 0.052273 0.052273 0.052379 0.052379 
        k : 0.0500309 0.0500309 0.0500255 0.0500255 
    Block 77 cell size :
        i : 1
        j : 0.052185 0.052185 0.052289 0.052289 
        k : 0.0500312 0.0500312 0.0500232 0.0500232 
    Block 78 cell size :
        i : 1
        j : 0.052083 0.052083 0.05219 0.05219 
        k : 0.0500242 0.0500242 0.0500192 0.0500192 
    Block 79 cell size :
        i : 1
        j : 0.0514273 0.0514273 0.051724 0.051724 
        k : 0.0513327 0.0513327 0.051701 0.051701 
    Block 80 cell size :
        i : 1
        j : 0.0510987 0.0510987 0.0514104 0.0514104 
        k : 0.051706 0.051706 0.052084 0.052084 
    Block 81 cell size :
        i : 1
        j : 0.049992 0.049992 0.0499907 0.0499907 
        k : 0.051724 0.051724 0.051904 0.051904 
    Block 82 cell size :
        i : 1
        j : 0.050002 0.050002 0.0499981 0.0499981 
        k : 0.051903 0.051903 0.052082 0.052082 
    Block 83 cell size :
        i : 1
        j : 0.0500106 0.0500106 0.050006 0.050006 
        k : 0.052077 0.052077 0.052257 0.052257 
    Block 84 cell size :
        i : 1
        j : 0.0500053 0.0500053 0.0500078 0.0500078 
        k : 0.052241 0.052241 0.052431 0.052431 
    Block 85 cell size :
        i : 1
        j : 0.0499598 0.0499598 0.0499917 0.0499917 
        k : 0.052406 0.052406 0.052631 0.052631 
    Block 86 cell size :
        i : 1
        j : 0.0524618 0.0524618 0.052545 0.052545 
        k : 0.0524591 0.0524591 0.052632 0.052632 
    Block 87 cell size :
        i : 1
        j : 0.0526063 0.0526063 0.0526386 0.0526386 
        k : 0.0521701 0.0521701 0.052409 0.052409 
    Block 88 cell size :
        i : 1
        j : 0.0527287 0.0527287 0.052632 0.052632 
        k : 0.0518841 0.0518841 0.052147 0.052147 
    Block 89 cell size :
        i : 1
        j : 0.052472 0.052472 0.052631 0.052631 
        k : 0.0499701 0.0499701 0.0500004 0.0500004 
    Block 90 cell size :
        i : 1
        j : 0.052379 0.052379 0.052499 0.052499 
        k : 0.0500137 0.0500137 0.0500178 0.0500178 
    Block 91 cell size :
        i : 1
        j : 0.052289 0.052289 0.052397 0.052397 
        k : 0.0500255 0.0500255 0.0500213 0.0500213 
    Block 92 cell size :
        i : 1
        j : 0.05219 0.05219 0.052296 0.052296 
        k : 0.0500232 0.0500232 0.0500183 0.0500183 
    Block 93 cell size :
        i : 1
        j : 0.052083 0.052083 0.052191 0.052191 
        k : 0.0500192 0.0500192 0.0500155 0.0500155 
    Block 94 cell size :
        i : 1
        j : 0.0514572 0.0514572 0.051724 0.051724 
        k : 0.0509846 0.0509846 0.0513327 0.0513327 
    Block 95 cell size :
        i : 1
        j : 0.0511254 0.0511254 0.0514273 0.0514273 
        k : 0.0513358 0.0513358 0.051706 0.051706 
    Block 96 cell size :
        i : 1
        j : 0.0508022 0.0508022 0.0510987 0.0510987 
        k : 0.0517319 0.0517319 0.052083 0.052083 
    Block 97 cell size :
        i : 1
        j : 0.0499907 0.0499907 0.0499891 0.0499891 
        k : 0.051724 0.051724 0.051905 0.051905 
    Block 98 cell size :
        i : 1
        j : 0.0499981 0.0499981 0.0499957 0.0499957 
        k : 0.051904 0.051904 0.052086 0.052086 
    Block 99 cell size :
        i : 1
        j : 0.050006 0.050006 0.0500041 0.0500041 
        k : 0.052082 0.052082 0.052263 0.052263 
    Block 100 cell size :
        i : 1
        j : 0.0500078
        k : 0.052257 0.052257 0.052442 0.052442 
    Block 101 cell size :
        i : 1
        j : 0.0499917 0.0499917 0.0500039 0.0500039 
        k : 0.052431 0.052431 0.052632 0.052632 
    Block 102 cell size :
        i : 1
        j : 0.0523461 0.0523461 0.0524618 0.0524618 
        k : 0.0525281 0.0525281 0.052631 0.052631 
    Block 103 cell size :
        i : 1
        j : 0.0525314 0.0525314 0.0526063 0.0526063 
        k : 0.0522663 0.0522663 0.0524591 0.0524591 
    Block 104 cell size :
        i : 1
        j : 0.0528015 0.0528015 0.0527287 0.0527287 
        k : 0.051924 0.051924 0.0521701 0.0521701 
    Block 105 cell size :
        i : 1
        j : 0.0516059 0.0516059 0.0518841 0.0518841 
        k : 0.052631 0.052631 0.0528607 0.0528607 
    Block 106 cell size :
        i : 1
        j : 0.052499 0.052499 0.052632 0.052632 
        k : 0.0500004 0.0500004 0.0500111 0.0500111 
    Block 107 cell size :
        i : 1
        j : 0.052397 0.052397 0.052512 0.052512 
        k : 0.0500178 0.0500178 0.0500184 0.0500184 
    Block 108 cell size :
        i : 1
        j : 0.052296 0.052296 0.052406 0.052406 
        k : 0.0500213 0.0500213 0.0500183 0.0500183 
    Block 109 cell size :
        i : 1
        j : 0.052191 0.052191 0.0523 0.0523 
        k : 0.0500183 0.0500183 0.0500145 0.0500145 
    Block 110 cell size :
        i : 1
        j : 0.052084 0.052084 0.052193 0.052193 
        k : 0.0500155 0.0500155 0.050012 0.050012 
    Block 111 cell size :
        i : 1
        j : 0.051508 0.051508 0.051725 0.051725 
        k : 0.0506689 0.0506689 0.0509846 0.0509846 
    Block 112 cell size :
        i : 1
        j : 0.05118 0.05118 0.0514572 0.0514572 
        k : 0.050979 0.050979 0.0513358 0.0513358 
    Block 113 cell size :
        i : 1
        j : 0.0508289 0.0508289 0.0511254 0.0511254 
        k : 0.0513776 0.0513776 0.0517319 0.0517319 
    Block 114 cell size :
        i : 1
        j : 0.0505388 0.0505388 0.0508022 0.0508022 
        k : 0.0517837 0.0517837 0.052083 0.052083 
    Block 115 cell size :
        i : 1
        j : 0.051724 0.051724 0.051906 0.051906 
        k : 0.0499891
    Block 116 cell size :
        i : 1
        j : 0.0499957 0.0499957 0.0499951 0.0499951 
        k : 0.051905 0.051905 0.052086 0.052086 
    Block 117 cell size :
        i : 1
        j : 0.0500041 0.0500041 0.0500017 0.0500017 
        k : 0.052086 0.052086 0.052267 0.052267 
    Block 118 cell size :
        i : 1
        j : 0.0500081
        k : 0.052263 0.052263 0.052446 0.052446 
    Block 119 cell size :
        i : 1
        j : 0.0500039 0.0500039 0.0500081 0.0500081 
        k : 0.052442 0.052442 0.052631 0.052631 
    Block 120 cell size :
        i : 1
        j : 0.0522045 0.0522045 0.0523461 0.0523461 
        k : 0.0526092 0.0526092 0.052632 0.052632 
    Block 121 cell size :
        i : 1
        j : 0.0524399 0.0524399 0.0525314 0.0525314 
        k : 0.0524224 0.0524224 0.0525281 0.0525281 
    Block 122 cell size :
        i : 1
        j : 0.0528129 0.0528129 0.0528015 0.0528015 
        k : 0.0520582 0.0520582 0.0522663 0.0522663 
    Block 123 cell size :
        i : 1
        j : 0.0530787 0.0530787 0.0528607 0.0528607 
        k : 0.0516634 0.0516634 0.051924 0.051924 
    Block 124 cell size :
        i : 1
        j : 0.0513066 0.0513066 0.0516059 0.0516059 
        k : 0.052632 0.052632 0.0530149 0.0530149 
    Block 125 cell size :
        i : 1
        j : 0.052512 0.052512 0.052631 0.052631 
        k : 0.0500111 0.0500111 0.0500146 0.0500146 
    Block 126 cell size :
        i : 1
        j : 0.052406 0.052406 0.052517 0.052517 
        k : 0.0500184 0.0500184 0.0500154 0.0500154 
    Block 127 cell size :
        i : 1
        j : 0.0523 0.0523 0.052409 0.052409 
        k : 0.0500183 0.0500183 0.0500155 0.0500155 
    Block 128 cell size :
        i : 1
        j : 0.052193 0.052193 0.052302 0.052302 
        k : 0.0500145 0.0500145 0.050013 0.050013 
    Block 129 cell size :
        i : 1
        j : 0.052083 0.052083 0.052192 0.052192 
        k : 0.050012 0.050012 0.0500097 0.0500097 
    Block 130 cell size :
        i : 1
        j : 0.0515817 0.0515817 0.051724 0.051724 
        k : 0.0504073 0.0504073 0.0506689 0.0506689 
    Block 131 cell size :
        i : 1
        j : 0.0512791 0.0512791 0.051508 0.051508 
        k : 0.0506537 0.0506537 0.050979 0.050979 
    Block 132 cell size :
        i : 1
        j : 0.0508796 0.0508796 0.05118 0.05118 
        k : 0.0510092 0.0510092 0.0513776 0.0513776 
    Block 133 cell size :
        i : 1
        j : 0.0505518 0.0505518 0.0508289 0.0508289 
        k : 0.051472 0.051472 0.0517837 0.0517837 
    Block 134 cell size :
        i : 1
        j : 0.0503246 0.0503246 0.0505388 0.0505388 
        k : 0.0518635 0.0518635 0.052084 0.052084 
    Block 135 cell size :
        i : 1
        j : 0.051724 0.051724 0.051905 0.051905 
        k : 0.0499897 0.0499897 0.0499891 0.0499891 
    Block 136 cell size :
        i : 1
        j : 0.051906 0.051906 0.052087 0.052087 
        k : 0.0499951
    Block 137 cell size :
        i : 1
        j : 0.0500017
        k : 0.052086 0.052086 0.052267 0.052267 
    Block 138 cell size :
        i : 1
        j : 0.0500081 0.0500081 0.0500067 0.0500067 
        k : 0.052267 0.052267 0.052449 0.052449 
    Block 139 cell size :
        i : 1
        j : 0.0500081
        k : 0.052446 0.052446 0.052632 0.052632 
    Block 140 cell size :
        i : 1
        j : 0.0520427 0.0520427 0.0522045 0.0522045 
        k : 0.0526882 0.0526882 0.052631 0.052631 
    Block 141 cell size :
        i : 1
        j : 0.0523173 0.0523173 0.0524399 0.0524399 
        k : 0.0525867 0.0525867 0.0526092 0.0526092 
    Block 142 cell size :
        i : 1
        j : 0.0527749 0.0527749 0.0528129 0.0528129 
        k : 0.0522876 0.0522876 0.0524224 0.0524224 
    Block 143 cell size :
        i : 1
        j : 0.0532773 0.0532773 0.0530787 0.0530787 
        k : 0.051843 0.051843 0.0520582 0.0520582 
    Block 144 cell size :
        i : 1
        j : 0.0513813 0.0513813 0.0516634 0.0516634 
        k : 0.0530149 0.0530149 0.0534062 0.0534062 
    Block 145 cell size :
        i : 1
        j : 0.0509806 0.0509806 0.0513066 0.0513066 
        k : 0.052631 0.052631 0.0531681 0.0531681 
    Block 146 cell size :
        i : 1
        j : 0.052517 0.052517 0.052632 0.052632 
        k : 0.0500146 0.0500146 0.0500154 0.0500154 
    Block 147 cell size :
        i : 1
        j : 0.052409 0.052409 0.05252 0.05252 
        k : 0.0500154 0.0500154 0.0500136 0.0500136 
    Block 148 cell size :
        i : 1
        j : 0.052302 0.052302 0.052411 0.052411 
        k : 0.0500155 0.0500155 0.050012 0.050012 
    Block 149 cell size :
        i : 1
        j : 0.052192 0.052192 0.052302 0.052302 
        k : 0.050013 0.050013 0.0500097 0.0500097 
    Block 150 cell size :
        i : 1
        j : 0.052083 0.052083 0.052193 0.052193 
        k : 0.0500097 0.0500097 0.0500077 0.0500077 
    Block 151 cell size :
        i : 1
        j : 0.0516544 0.0516544 0.051724 0.051724 
        k : 0.0501991 0.0501991 0.0504073 0.0504073 
    Block 152 cell size :
        i : 1
        j : 0.0514497 0.0514497 0.0515817 0.0515817 
        k : 0.050397 0.050397 0.0506537 0.0506537 
    Block 153 cell size :
        i : 1
        j : 0.0509975 0.0509975 0.0512791 0.0512791 
        k : 0.0506322 0.0506322 0.0510092 0.0510092 
    Block 154 cell size :
        i : 1
        j : 0.050562 0.050562 0.0508796 0.0508796 
        k : 0.0511066 0.0511066 0.051472 0.051472 
    Block 155 cell size :
        i : 1
        j : 0.050326 0.050326 0.0505518 0.0505518 
        k : 0.051633 0.051633 0.0518635 0.0518635 
    Block 156 cell size :
        i : 1
        j : 0.0501738 0.0501738 0.0503246 0.0503246 
        k : 0.0519592 0.0519592 0.052083 0.052083 
    Block 157 cell size :
        i : 1
        j : 0.051724 0.051724 0.051906 0.051906 
        k : 0.0499911 0.0499911 0.0499897 0.0499897 
    Block 158 cell size :
        i : 1
        j : 0.051905 0.051905 0.052087 0.052087 
        k : 0.0499957 0.0499957 0.0499951 0.0499951 
    Block 159 cell size :
        i : 1
        j : 0.0500021 0.0500021 0.0500011 0.0500011 
        k : 0.052087 0.052087 0.052268 0.052268 
    Block 160 cell size :
        i : 1
        j : 0.0500067 0.0500067 0.0500061 0.0500061 
        k : 0.052267 0.052267 0.052449 0.052449 
    Block 161 cell size :
        i : 1
        j : 0.0500081 0.0500081 0.0500087 0.0500087 
        k : 0.052449 0.052449 0.052632 0.052632 
    Block 162 cell size :
        i : 1
        j : 0.0518672 0.0518672 0.0520427 0.0520427 
        k : 0.0527593 0.0527593 0.052632 0.052632 
    Block 163 cell size :
        i : 1
        j : 0.0521814 0.0521814 0.0523173 0.0523173 
        k : 0.0527478 0.0527478 0.0526882 0.0526882 
    Block 164 cell size :
        i : 1
        j : 0.0527454 0.0527454 0.0527749 0.0527749 
        k : 0.0525578 0.0525578 0.0525867 0.0525867 
    Block 165 cell size :
        i : 1
        j : 0.053345 0.053345 0.0532773 0.0532773 
        k : 0.0521203 0.0521203 0.0522876 0.0522876 
    Block 166 cell size :
        i : 1
        j : 0.0534062 0.0534062 0.0538044 0.0538044 
        k : 0.051843 0.051843 0.0516029 0.0516029 
    Block 167 cell size :
        i : 1
        j : 0.0510686 0.0510686 0.0513813 0.0513813 
        k : 0.0531681 0.0531681 0.053724 0.053724 
    Block 168 cell size :
        i : 1
        j : 0.0506192 0.0506192 0.0509806 0.0509806 
        k : 0.052632 0.052632 0.0532984 0.0532984 
    Block 169 cell size :
        i : 1
        j : 0.05252 0.05252 0.052632 0.052632 
        k : 0.0500154 0.0500154 0.0500136 0.0500136 
    Block 170 cell size :
        i : 1
        j : 0.052411 0.052411 0.052521 0.052521 
        k : 0.0500136 0.0500136 0.050011 0.050011 
    Block 171 cell size :
        i : 1
        j : 0.052302 0.052302 0.052412 0.052412 
        k : 0.050012 0.050012 0.0500097 0.0500097 
    Block 172 cell size :
        i : 1
        j : 0.052193 0.052193 0.052302 0.052302 
        k : 0.0500097 0.0500097 0.0500077 0.0500077 
    Block 173 cell size :
        i : 1
        j : 0.052084 0.052084 0.052193 0.052193 
        k : 0.0500077 0.0500077 0.0500059 0.0500059 
    Block 174 cell size :
        i : 1
        j : 0.0517581 0.0517581 0.051724 0.051724 
        k : 0.0500743 0.0500743 0.0501991 0.0501991 
    Block 175 cell size :
        i : 1
        j : 0.0516006 0.0516006 0.0516544 0.0516544 
        k : 0.0501965 0.0501965 0.050397 0.050397 
    Block 176 cell size :
        i : 1
        j : 0.0512649 0.0512649 0.0514497 0.0514497 
        k : 0.0503192 0.0503192 0.0506322 0.0506322 
    Block 177 cell size :
        i : 1
        j : 0.0505737 0.0505737 0.0509975 0.0509975 
        k : 0.0506002 0.0506002 0.0511066 0.0511066 
    Block 178 cell size :
        i : 1
        j : 0.0502832 0.0502832 0.050562 0.050562 
        k : 0.0513504 0.0513504 0.051633 0.051633 
    Block 179 cell size :
        i : 1
        j : 0.0501701 0.0501701 0.050326 0.050326 
        k : 0.05184 0.05184 0.0519592 0.0519592 
    Block 180 cell size :
        i : 1
        j : 0.0500839 0.0500839 0.0501738 0.0501738 
        k : 0.0520561 0.0520561 0.052083 0.052083 
    Block 181 cell size :
        i : 1
        j : 0.051724 0.051724 0.051906 0.051906 
        k : 0.049993 0.049993 0.0499911 0.0499911 
    Block 182 cell size :
        i : 1
        j : 0.051906 0.051906 0.052087 0.052087 
        k : 0.0499971 0.0499971 0.0499957 0.0499957 
    Block 183 cell size :
        i : 1
        j : 0.052087 0.052087 0.052269 0.052269 
        k : 0.0500017 0.0500017 0.0500011 0.0500011 
    Block 184 cell size :
        i : 1
        j : 0.0500061 0.0500061 0.0500071 0.0500071 
        k : 0.052268 0.052268 0.05245 0.05245 
    Block 185 cell size :
        i : 1
        j : 0.0500087 0.0500087 0.0500081 0.0500081 
        k : 0.052449 0.052449 0.052631 0.052631 
    Block 186 cell size :
        i : 1
        j : 0.0518672 0.0518672 0.0516774 0.0516774 
        k : 0.052632 0.052632 0.0528183 0.0528183 
    Block 187 cell size :
        i : 1
        j : 0.0520397 0.0520397 0.0521814 0.0521814 
        k : 0.0528899 0.0528899 0.0527593 0.0527593 
    Block 188 cell size :
        i : 1
        j : 0.0527454 0.0527454 0.0527066 0.0527066 
        k : 0.0527478 0.0527478 0.0527951 0.0527951 
    Block 189 cell size :
        i : 1
        j : 0.053345 0.053345 0.053454 0.053454 
        k : 0.0525578 0.0525578 0.0524963 0.0524963 
    Block 190 cell size :
        i : 1
        j : 0.0538044 0.0538044 0.054268 0.054268 
        k : 0.0521203 0.0521203 0.0519597 0.0519597 
    Block 191 cell size :
        i : 1
        j : 0.0513078 0.0513078 0.0516029 0.0516029 
        k : 0.053724 0.053724 0.0542915 0.0542915 
    Block 192 cell size :
        i : 1
        j : 0.0507199 0.0507199 0.0510686 0.0510686 
        k : 0.0532984 0.0532984 0.0539952 0.0539952 
    Block 193 cell size :
        i : 1
        j : 0.0502134 0.0502134 0.0506192 0.0506192 
        k : 0.052632 0.052632 0.0533858 0.0533858 
    Block 194 cell size :
        i : 1
        j : 0.052521 0.052521 0.052631 0.052631 
        k : 0.0500136 0.0500136 0.050012 0.050012 
    Block 195 cell size :
        i : 1
        j : 0.052412 0.052412 0.052522 0.052522 
        k : 0.050011 0.050011 0.0500097 0.0500097 
    Block 196 cell size :
        i : 1
        j : 0.052083 0.052083 0.052193 0.052193 
        k : 0.0500059 0.0500059 0.0500043 0.0500043 
    Block 197 cell size :
        i : 1
        j : 0.052302 0.052302 0.052412 0.052412 
        k : 0.0500097 0.0500097 0.0500077 0.0500077 
    Block 198 cell size :
        i : 1
        j : 0.052193 0.052193 0.052303 0.052303 
        k : 0.0500077 0.0500077 0.0500059 0.0500059 
    Block 199 cell size :
        i : 1
        j : 0.051724 0.051724 0.051842 0.051842 
        k : 0.0500743 0.0500743 0.0500185 0.0500185 
    Block 200 cell size :
        i : 1
        j : 0.0518065 0.0518065 0.0517581 0.0517581 
        k : 0.0500823 0.0500823 0.0501965 0.0501965 
    Block 201 cell size :
        i : 1
        j : 0.0515735 0.0515735 0.0516006 0.0516006 
        k : 0.0501321 0.0501321 0.0503192 0.0503192 
    Block 202 cell size :
        i : 1
        j : 0.0508613 0.0508613 0.0512649 0.0512649 
        k : 0.0500561 0.0500561 0.0506002 0.0506002 
    Block 203 cell size :
        i : 1
        j : 0.0500955 0.0500955 0.0505737 0.0505737 
        k : 0.0508471 0.0508471 0.0513504 0.0513504 
    Block 204 cell size :
        i : 1
        j : 0.0501252 0.0501252 0.0502832 0.0502832 
        k : 0.0517332 0.0517332 0.05184 0.05184 
    Block 205 cell size :
        i : 1
        j : 0.0500848 0.0500848 0.0501701 0.0501701 
        k : 0.0520393 0.0520393 0.0520561 0.0520561 
    Block 206 cell size :
        i : 1
        j : 0.0500839 0.0500839 0.0500421 0.0500421 
        k : 0.052084 0.052084 0.052134 0.052134 
    Block 207 cell size :
        i : 1
        j : 0.051725 0.051725 0.051905 0.051905 
        k : 0.0499957 0.0499957 0.049993 0.049993 
    Block 208 cell size :
        i : 1
        j : 0.051906 0.051906 0.052087 0.052087 
        k : 0.049999 0.049999 0.0499971 0.0499971 
    Block 209 cell size :
        i : 1
        j : 0.052087 0.052087 0.052268 0.052268 
        k : 0.0500031 0.0500031 0.0500017 0.0500017 
    Block 210 cell size :
        i : 1
        j : 0.052269 0.052269 0.05245 0.05245 
        k : 0.0500077 0.0500077 0.0500071 0.0500071 
    Block 211 cell size :
        i : 1
        j : 0.0500081
        k : 0.05245 0.05245 0.052632 0.052632 
    Block 212 cell size :
        i : 1
        j : 0.0516774 0.0516774 0.0514512 0.0514512 
        k : 0.052631 0.052631 0.0528625 0.0528625 
    Block 213 cell size :
        i : 1
        j : 0.0520397 0.0520397 0.0518948 0.0518948 
        k : 0.0528183 0.0528183 0.053009 0.053009 
    Block 214 cell size :
        i : 1
        j : 0.0527066 0.0527066 0.0527019 0.0527019 
        k : 0.0528899 0.0528899 0.0530039 0.0530039 
    Block 215 cell size :
        i : 1
        j : 0.053454 0.053454 0.0534667 0.0534667 
        k : 0.0527951 0.0527951 0.052812 0.052812 
    Block 216 cell size :
        i : 1
        j : 0.054268 0.054268 0.0544179 0.0544179 
        k : 0.0524963 0.0524963 0.05235 0.05235 
    Block 217 cell size :
        i : 1
        j : 0.0542915 0.0542915 0.0549191 0.0549191 
        k : 0.0519597 0.0519597 0.0517288 0.0517288 
    Block 218 cell size :
        i : 1
        j : 0.0509906 0.0509906 0.0513078 0.0513078 
        k : 0.0539952 0.0539952 0.0547378 0.0547378 
    Block 219 cell size :
        i : 1
        j : 0.0503132 0.0503132 0.0507199 0.0507199 
        k : 0.0533858 0.0533858 0.0541832 0.0541832 
    Block 220 cell size :
        i : 1
        j : 0.0497572 0.0497572 0.0502134 0.0502134 
        k : 0.052631 0.052631 0.0534224 0.0534224 
    Block 221 cell size :
        i : 1
        j : 0.052522 0.052522 0.052632 0.052632 
        k : 0.050012 0.050012 0.0500097 0.0500097 
    Block 222 cell size :
        i : 1
        j : 0.052412 0.052412 0.052522 0.052522 
        k : 0.0500097 0.0500097 0.0500077 0.0500077 
    Block 223 cell size :
        i : 1
        j : 0.052083 0.052083 0.052193 0.052193 
        k : 0.0500043 0.0500043 0.050003 0.050003 
    Block 224 cell size :
        i : 1
        j : 0.052193 0.052193 0.052302 0.052302 
        k : 0.0500059 0.0500059 0.0500043 0.0500043 
    Block 225 cell size :
        i : 1
        j : 0.052303 0.052303 0.052412 0.052412 
        k : 0.0500077 0.0500077 0.0500059 0.0500059 
    Block 226 cell size :
        i : 1
        j : 0.051724 0.051724 0.051888 0.051888 
        k : 0.0500185 0.0500185 0.0500009 0.0500009 
    Block 227 cell size :
        i : 1
        j : 0.051724 0.051724 0.051904 0.051904 
        k : 0.0500009 0.0500009 0.0499957 0.0499957 
    Block 228 cell size :
        i : 1
        j : 0.051842 0.051842 0.0519611 0.0519611 
        k : 0.0500823 0.0500823 0.0500274 0.0500274 
    Block 229 cell size :
        i : 1
        j : 0.0518065 0.0518065 0.0519079 0.0519079 
        k : 0.0501321 0.0501321 0.0500564 0.0500564 
    Block 230 cell size :
        i : 1
        j : 0.051647 0.051647 0.0515735 0.0515735 
        k : 0.0499357 0.0499357 0.0500561 0.0500561 
    Block 231 cell size :
        i : 1
        j : 0.0492099 0.0492099 0.0508613 0.0508613 
        k : 0.048992 0.048992 0.0508471 0.0508471 
    Block 232 cell size :
        i : 1
        j : 0.0499754 0.0499754 0.0500955 0.0500955 
        k : 0.0517135 0.0517135 0.0517332 0.0517332 
    Block 233 cell size :
        i : 1
        j : 0.0500622 0.0500622 0.0501252 0.0501252 
        k : 0.0520665 0.0520665 0.0520393 0.0520393 
    Block 234 cell size :
        i : 1
        j : 0.0500848 0.0500848 0.0500441 0.0500441 
        k : 0.052134 0.052134 0.0521841 0.0521841 
    Block 235 cell size :
        i : 1
        j : 0.0500421 0.0500421 0.050028 0.050028 
        k : 0.052083 0.052083 0.052176 0.052176 
    Block 236 cell size :
        i : 1
        j : 0.051905 0.051905 0.052087 0.052087 
        k : 0.0500017 0.0500017 0.049999 0.049999 
    Block 237 cell size :
        i : 1
        j : 0.052087 0.052087 0.052269 0.052269 
        k : 0.050005 0.050005 0.0500031 0.0500031 
    Block 238 cell size :
        i : 1
        j : 0.052268 0.052268 0.05245 0.05245 
        k : 0.0500091 0.0500091 0.0500077 0.0500077 
    Block 239 cell size :
        i : 1
        j : 0.05245 0.05245 0.052631 0.052631 
        k : 0.0500087 0.0500087 0.0500081 0.0500081 
    Block 240 cell size :
        i : 1
        j : 0.0514512 0.0514512 0.0514271 0.0514271 
        k : 0.052632 0.052632 0.052877 0.052877 
    Block 241 cell size :
        i : 1
        j : 0.0518948 0.0518948 0.0517914 0.0517914 
        k : 0.0528625 0.0528625 0.053101 0.053101 
    Block 242 cell size :
        i : 1
        j : 0.0527019 0.0527019 0.0526557 0.0526557 
        k : 0.053009 0.053009 0.0531953 0.0531953 
    Block 243 cell size :
        i : 1
        j : 0.0534667 0.0534667 0.0538697 0.0538697 
        k : 0.0530039 0.0530039 0.0530611 0.0530611 
    Block 244 cell size :
        i : 1
        j : 0.0544179 0.0544179 0.0547214 0.0547214 
        k : 0.052812 0.052812 0.052736 0.052736 
    Block 245 cell size :
        i : 1
        j : 0.0549191 0.0549191 0.0555965 0.0555965 
        k : 0.05235 0.05235 0.0521178 0.0521178 
    Block 246 cell size :
        i : 1
        j : 0.0513561 0.0513561 0.0517288 0.0517288 
        k : 0.0547378 0.0547378 0.0553557 0.0553557 
    Block 247 cell size :
        i : 1
        j : 0.0505965 0.0505965 0.0509906 0.0509906 
        k : 0.0541832 0.0541832 0.0549676 0.0549676 
    Block 248 cell size :
        i : 1
        j : 0.0498732 0.0498732 0.0503132 0.0503132 
        k : 0.0534224 0.0534224 0.0542421 0.0542421 
    Block 249 cell size :
        i : 1
        j : 0.0492344 0.0492344 0.0497572 0.0497572 
        k : 0.052632 0.052632 0.0534182 0.0534182 
    Block 250 cell size :
        i : 1
        j : 0.052522 0.052522 0.052631 0.052631 
        k : 0.0500097 0.0500097 0.0500077 0.0500077 
    Block 251 cell size :
        i : 1
        j : 0.052412 0.052412 0.052522 0.052522 
        k : 0.0500077 0.0500077 0.0500059 0.0500059 
    Block 252 cell size :
        i : 1
        j : 0.052084 0.052084 0.052193 0.052193 
        k : 0.050003 0.050003 0.0500019 0.0500019 
    Block 253 cell size :
        i : 1
        j : 0.052193 0.052193 0.052303 0.052303 
        k : 0.0500043 0.0500043 0.050003 0.050003 
    Block 254 cell size :
        i : 1
        j : 0.052302 0.052302 0.052412 0.052412 
        k : 0.0500059 0.0500059 0.0500043 0.0500043 
    Block 255 cell size :
        i : 1
        j : 0.051888 0.051888 0.05205 0.05205 
        k : 0.0500274 0.0500274 0.0500069 0.0500069 
    Block 256 cell size :
        i : 1
        j : 0.051904 0.051904 0.052082 0.052082 
        k : 0.0500069 0.0500069 0.0500017 0.0500017 
    Block 257 cell size :
        i : 1
        j : 0.0519611 0.0519611 0.0521142 0.0521142 
        k : 0.0500564 0.0500564 0.0500266 0.0500266 
    Block 258 cell size :
        i : 1
        j : 0.0519079 0.0519079 0.0521576 0.0521576 
        k : 0.0499357 0.0499357 0.049983 0.049983 
    Block 259 cell size :
        i : 1
        j : 0.051647 0.051647 0.052632 0.052632 
        k : 0.048992 0.048992 0.049659 0.049659 
    Block 260 cell size :
        i : 1
        j : 0.0492099 0.0492099 0.0497534 0.0497534 
        k : 0.0517135 0.0517135 0.052632 0.052632 
    Block 261 cell size :
        i : 1
        j : 0.0499754 0.0499754 0.0500046 0.0500046 
        k : 0.0520665 0.0520665 0.0522364 0.0522364 
    Block 262 cell size :
        i : 1
        j : 0.0500622 0.0500622 0.0500393 0.0500393 
        k : 0.0521841 0.0521841 0.0522661 0.0522661 
    Block 263 cell size :
        i : 1
        j : 0.0500441 0.0500441 0.050029 0.050029 
        k : 0.052176 0.052176 0.052268 0.052268 
    Block 264 cell size :
        i : 1
        j : 0.050028 0.050028 0.0500236 0.0500236 
        k : 0.052083 0.052083 0.052191 0.052191 
    Block 265 cell size :
        i : 1
        j : 0.052087 0.052087 0.052268 0.052268 
        k : 0.0500077 0.0500077 0.050005 0.050005 
    Block 266 cell size :
        i : 1
        j : 0.052269 0.052269 0.05245 0.05245 
        k : 0.050011 0.050011 0.0500091 0.0500091 
    Block 267 cell size :
        i : 1
        j : 0.05245 0.05245 0.052632 0.052632 
        k : 0.0500101 0.0500101 0.0500087 0.0500087 
    Block 268 cell size :
        i : 1
        j : 0.052631 0.052631 0.052871 0.052871 
        k : 0.0514721 0.0514721 0.0514271 0.0514271 
    Block 269 cell size :
        i : 1
        j : 0.0517914 0.0517914 0.0515231 0.0515231 
        k : 0.052877 0.052877 0.0531538 0.0531538 
    Block 270 cell size :
        i : 1
        j : 0.0526557 0.0526557 0.0525697 0.0525697 
        k : 0.053101 0.053101 0.0533556 0.0533556 
    Block 271 cell size :
        i : 1
        j : 0.0538697 0.0538697 0.0538991 0.0538991 
        k : 0.0531953 0.0531953 0.0533611 0.0533611 
    Block 272 cell size :
        i : 1
        j : 0.0547214 0.0547214 0.0550569 0.0550569 
        k : 0.0530611 0.0530611 0.0530387 0.0530387 
    Block 273 cell size :
        i : 1
        j : 0.0555965 0.0555965 0.0559522 0.0559522 
        k : 0.052736 0.052736 0.052562 0.052562 
    Block 274 cell size :
        i : 1
        j : 0.0553557 0.0553557 0.0560763 0.0560763 
        k : 0.0521178 0.0521178 0.0517924 0.0517924 
    Block 275 cell size :
        i : 1
        j : 0.0509338 0.0509338 0.0513561 0.0513561 
        k : 0.0549676 0.0549676 0.0557898 0.0557898 
    Block 276 cell size :
        i : 1
        j : 0.0501087 0.0501087 0.0505965 0.0505965 
        k : 0.0542421 0.0542421 0.0550543 0.0550543 
    Block 277 cell size :
        i : 1
        j : 0.052083 0.052083 0.052193 0.052193 
        k : 0.0500019 0.0500019 0.0500011 0.0500011 
    Block 278 cell size :
        i : 1
        j : 0.0493531 0.0493531 0.0498732 0.0498732 
        k : 0.0534182 0.0534182 0.0542076 0.0542076 
    Block 279 cell size :
        i : 1
        j : 0.0486297 0.0486297 0.0492344 0.0492344 
        k : 0.052631 0.052631 0.0533953 0.0533953 
    Block 280 cell size :
        i : 1
        j : 0.052522 0.052522 0.052632 0.052632 
        k : 0.0500077 0.0500077 0.0500059 0.0500059 
    Block 281 cell size :
        i : 1
        j : 0.052412 0.052412 0.052521 0.052521 
        k : 0.0500059 0.0500059 0.0500043 0.0500043 
    Block 282 cell size :
        i : 1
        j : 0.052193 0.052193 0.052302 0.052302 
        k : 0.050003 0.050003 0.0500019 0.0500019 
    Block 283 cell size :
        i : 1
        j : 0.052303 0.052303 0.052413 0.052413 
        k : 0.0500043 0.0500043 0.050003 0.050003 
    Block 284 cell size :
        i : 1
        j : 0.05205 0.05205 0.052219 0.052219 
        k : 0.0500266 0.0500266 0.0500129 0.0500129 
    Block 285 cell size :
        i : 1
        j : 0.052082 0.052082 0.052262 0.052262 
        k : 0.0500129 0.0500129 0.0500077 0.0500077 
    Block 286 cell size :
        i : 1
        j : 0.0521142 0.0521142 0.0523361 0.0523361 
        k : 0.049983 0.049983 0.0500112 0.0500112 
    Block 287 cell size :
        i : 1
        j : 0.0521576 0.0521576 0.052631 0.052631 
        k : 0.049659 0.049659 0.0498972 0.0498972 
    Block 288 cell size :
        i : 1
        j : 0.0523833 0.0523833 0.052632 0.052632 
        k : 0.0524606 0.0524606 0.052632 0.052632 
    Block 289 cell size :
        i : 1
        j : 0.0497534 0.0497534 0.0499386 0.0499386 
        k : 0.0522364 0.0522364 0.052631 0.052631 
    Block 290 cell size :
        i : 1
        j : 0.0500046 0.0500046 0.0500241 0.0500241 
        k : 0.0522661 0.0522661 0.0524141 0.0524141 
    Block 291 cell size :
        i : 1
        j : 0.0500393 0.0500393 0.050029 0.050029 
        k : 0.052268 0.052268 0.052367 0.052367 
    Block 292 cell size :
        i : 1
        j : 0.050029 0.050029 0.0500236 0.0500236 
        k : 0.052191 0.052191 0.052298 0.052298 
    Block 293 cell size :
        i : 1
        j : 0.0500236 0.0500236 0.0500203 0.0500203 
        k : 0.052084 0.052084 0.052193 0.052193 
    Block 294 cell size :
        i : 1
        j : 0.052268 0.052268 0.05245 0.05245 
        k : 0.0500137 0.0500137 0.050011 0.050011 
    Block 295 cell size :
        i : 1
        j : 0.05245 0.05245 0.052632 0.052632 
        k : 0.050012 0.050012 0.0500101 0.0500101 
    Block 296 cell size :
        i : 1
        j : 0.052632 0.052632 0.0528401 0.0528401 
        k : 0.0515628 0.0515628 0.0514721 0.0514721 
    Block 297 cell size :
        i : 1
        j : 0.052871 0.052871 0.0531273 0.0531273 
        k : 0.0516471 0.0516471 0.0515231 0.0515231 
    Block 298 cell size :
        i : 1
        j : 0.0525697 0.0525697 0.052433 0.052433 
        k : 0.0531538 0.0531538 0.0534627 0.0534627 
    Block 299 cell size :
        i : 1
        j : 0.0538991 0.0538991 0.053946 0.053946 
        k : 0.0533556 0.0533556 0.0536322 0.0536322 
    Block 300 cell size :
        i : 1
        j : 0.0550569 0.0550569 0.0554293 0.0554293 
        k : 0.0533611 0.0533611 0.053479 0.053479 
    Block 301 cell size :
        i : 1
        j : 0.0559522 0.0559522 0.0562888 0.0562888 
        k : 0.0530387 0.0530387 0.0529164 0.0529164 
    Block 302 cell size :
        i : 1
        j : 0.0560763 0.0560763 0.0569323 0.0569323 
        k : 0.052562 0.052562 0.0522453 0.0522453 
    Block 303 cell size :
        i : 1
        j : 0.0513348 0.0513348 0.0517924 0.0517924 
        k : 0.0557898 0.0557898 0.0566086 0.0566086 
    Block 304 cell size :
        i : 1
        j : 0.0504333 0.0504333 0.0509338 0.0509338 
        k : 0.0550543 0.0550543 0.0559006 0.0559006 
    Block 305 cell size :
        i : 1
        j : 0.0495754 0.0495754 0.0501087 0.0501087 
        k : 0.0542076 0.0542076 0.0549791 0.0549791 
    Block 306 cell size :
        i : 1
        j : 0.052083 0.052083 0.052193 0.052193 
        k : 0.0500011 0.0500011 0.0500005 0.0500005 
    Block 307 cell size :
        i : 1
        j : 0.052193 0.052193 0.052303 0.052303 
        k : 0.0500019 0.0500019 0.0500011 0.0500011 
    Block 308 cell size :
        i : 1
        j : 0.0487585 0.0487585 0.0493531 0.0493531 
        k : 0.0533953 0.0533953 0.0541317 0.0541317 
    Block 309 cell size :
        i : 1
        j : 0.0479228 0.0479228 0.0486297 0.0486297 
        k : 0.052632 0.052632 0.0533889 0.0533889 
    Block 310 cell size :
        i : 1
        j : 0.052521 0.052521 0.052632 0.052632 
        k : 0.0500059 0.0500059 0.0500043 0.0500043 
    Block 311 cell size :
        i : 1
        j : 0.052413 0.052413 0.052522 0.052522 
        k : 0.0500043 0.0500043 0.050003 0.050003 
    Block 312 cell size :
        i : 1
        j : 0.052302 0.052302 0.052412 0.052412 
        k : 0.050003 0.050003 0.0500019 0.0500019 
    Block 313 cell size :
        i : 1
        j : 0.052219 0.052219 0.052413 0.052413 
        k : 0.0500112 0.0500112 0.050016 0.050016 
    Block 314 cell size :
        i : 1
        j : 0.052262 0.052262 0.052443 0.052443 
        k : 0.050016 0.050016 0.0500137 0.0500137 
    Block 315 cell size :
        i : 1
        j : 0.0523361 0.0523361 0.052632 0.052632 
        k : 0.0498972 0.0498972 0.049986 0.049986 
    Block 316 cell size :
        i : 1
        j : 0.0523983 0.0523983 0.052631 0.052631 
        k : 0.0522762 0.0522762 0.0524606 0.0524606 
    Block 317 cell size :
        i : 1
        j : 0.052123 0.052123 0.0523833 0.0523833 
        k : 0.0524766 0.0524766 0.052631 0.052631 
    Block 318 cell size :
        i : 1
        j : 0.0499386 0.0499386 0.0500043 0.0500043 
        k : 0.0524141 0.0524141 0.052632 0.052632 
    Block 319 cell size :
        i : 1
        j : 0.0500241 0.0500241 0.0500261 0.0500261 
        k : 0.052367 0.052367 0.052487 0.052487 
    Block 320 cell size :
        i : 1
        j : 0.050029 0.050029 0.0500236 0.0500236 
        k : 0.052298 0.052298 0.052405 0.052405 
    Block 321 cell size :
        i : 1
        j : 0.0500236 0.0500236 0.0500203 0.0500203 
        k : 0.052193 0.052193 0.052303 0.052303 
    Block 322 cell size :
        i : 1
        j : 0.0500203 0.0500203 0.0500173 0.0500173 
        k : 0.052083 0.052083 0.052193 0.052193 
    Block 323 cell size :
        i : 1
        j : 0.05245 0.05245 0.052631 0.052631 
        k : 0.0500147 0.0500147 0.050012 0.050012 
    Block 324 cell size :
        i : 1
        j : 0.052632 0.052632 0.0527871 0.0527871 
        k : 0.0516716 0.0516716 0.0515628 0.0515628 
    Block 325 cell size :
        i : 1
        j : 0.0528401 0.0528401 0.0530702 0.0530702 
        k : 0.0517191 0.0517191 0.0516471 0.0516471 
    Block 326 cell size :
        i : 1
        j : 0.0531273 0.0531273 0.0534322 0.0534322 
        k : 0.0524211 0.0524211 0.052433 0.052433 
    Block 327 cell size :
        i : 1
        j : 0.053946 0.053946 0.0538981 0.0538981 
        k : 0.0534627 0.0534627 0.0538381 0.0538381 
    Block 328 cell size :
        i : 1
        j : 0.0554293 0.0554293 0.055739 0.055739 
        k : 0.0536322 0.0536322 0.05393 0.05393 
    Block 329 cell size :
        i : 1
        j : 0.0562888 0.0562888 0.0570207 0.0570207 
        k : 0.053479 0.053479 0.0534755 0.0534755 
    Block 330 cell size :
        i : 1
        j : 0.0569323 0.0569323 0.0576109 0.0576109 
        k : 0.0529164 0.0529164 0.0526052 0.0526052 
    Block 331 cell size :
        i : 1
        j : 0.0566086 0.0566086 0.0576061 0.0576061 
        k : 0.0522453 0.0522453 0.0517037 0.0517037 
    Block 332 cell size :
        i : 1
        j : 0.050792 0.050792 0.0513348 0.0513348 
        k : 0.0559006 0.0559006 0.0567684 0.0567684 
    Block 333 cell size :
        i : 1
        j : 0.0498739 0.0498739 0.0504333 0.0504333 
        k : 0.0549791 0.0549791 0.0557184 0.0557184 
    Block 334 cell size :
        i : 1
        j : 0.0489945 0.0489945 0.0495754 0.0495754 
        k : 0.0541317 0.0541317 0.054807 0.054807 
    Block 335 cell size :
        i : 1
        j : 0.052084 0.052084 0.052193 0.052193 
        k : 0.0500005
    Block 336 cell size :
        i : 1
        j : 0.052193 0.052193 0.052303 0.052303 
        k : 0.0500011 0.0500011 0.0500005 0.0500005 
    Block 337 cell size :
        i : 1
        j : 0.052303 0.052303 0.052412 0.052412 
        k : 0.0500019 0.0500019 0.0500011 0.0500011 
    Block 338 cell size :
        i : 1
        j : 0.0480791 0.0480791 0.0487585 0.0487585 
        k : 0.0533889 0.0533889 0.0540763 0.0540763 
    Block 339 cell size :
        i : 1
        j : 0.0470842 0.0470842 0.0479228 0.0479228 
        k : 0.052632 0.052632 0.0534424 0.0534424 
    Block 340 cell size :
        i : 1
        j : 0.052522 0.052522 0.052631 0.052631 
        k : 0.0500043 0.0500043 0.050003 0.050003 
    Block 341 cell size :
        i : 1
        j : 0.052412 0.052412 0.052522 0.052522 
        k : 0.050003 0.050003 0.0500019 0.0500019 
    Block 342 cell size :
        i : 1
        j : 0.052413 0.052413 0.052631 0.052631 
        k : 0.049986 0.049986 0.0500131 0.0500131 
    Block 343 cell size :
        i : 1
        j : 0.052443 0.052443 0.052632 0.052632 
        k : 0.0500131 0.0500131 0.0500147 0.0500147 
    Block 344 cell size :
        i : 1
        j : 0.0524533 0.0524533 0.052632 0.052632 
        k : 0.0521022 0.0521022 0.0522762 0.0522762 
    Block 345 cell size :
        i : 1
        j : 0.0521463 0.0521463 0.0523983 0.0523983 
        k : 0.0523025 0.0523025 0.0524766 0.0524766 
    Block 346 cell size :
        i : 1
        j : 0.0518518 0.0518518 0.052123 0.052123 
        k : 0.0525267 0.0525267 0.052632 0.052632 
    Block 347 cell size :
        i : 1
        j : 0.0500043 0.0500043 0.0500233 0.0500233 
        k : 0.052487 0.052487 0.052631 0.052631 
    Block 348 cell size :
        i : 1
        j : 0.0500261 0.0500261 0.0500236 0.0500236 
        k : 0.052405 0.052405 0.052515 0.052515 
    Block 349 cell size :
        i : 1
        j : 0.0500236 0.0500236 0.0500203 0.0500203 
        k : 0.052303 0.052303 0.052412 0.052412 
    Block 350 cell size :
        i : 1
        j : 0.0500203 0.0500203 0.0500173 0.0500173 
        k : 0.052193 0.052193 0.052302 0.052302 
    Block 351 cell size :
        i : 1
        j : 0.0500173 0.0500173 0.0500145 0.0500145 
        k : 0.052083 0.052083 0.052193 0.052193 
    Block 352 cell size :
        i : 1
        j : 0.0527111 0.0527111 0.052631 0.052631 
        k : 0.0516716 0.0516716 0.0517968 0.0517968 
    Block 353 cell size :
        i : 1
        j : 0.0527871 0.0527871 0.0529593 0.0529593 
        k : 0.0517893 0.0517893 0.0517191 0.0517191 
    Block 354 cell size :
        i : 1
        j : 0.0530702 0.0530702 0.0533441 0.0533441 
        k : 0.0523665 0.0523665 0.0524211 0.0524211 
    Block 355 cell size :
        i : 1
        j : 0.0534322 0.0534322 0.053832 0.053832 
        k : 0.0537479 0.0537479 0.0538981 0.0538981 
    Block 356 cell size :
        i : 1
        j : 0.055739 0.055739 0.0558329 0.0558329 
        k : 0.0538381 0.0538381 0.0543413 0.0543413 
    Block 357 cell size :
        i : 1
        j : 0.0570207 0.0570207 0.0577963 0.0577963 
        k : 0.05393 0.05393 0.054226 0.054226 
    Block 358 cell size :
        i : 1
        j : 0.0576109 0.0576109 0.0584817 0.0584817 
        k : 0.0534755 0.0534755 0.0532778 0.0532778 
    Block 359 cell size :
        i : 1
        j : 0.0576061 0.0576061 0.0583782 0.0583782 
        k : 0.0526052 0.0526052 0.0521541 0.0521541 
    Block 360 cell size :
        i : 1
        j : 0.0511089 0.0511089 0.0517037 0.0517037 
        k : 0.0567684 0.0567684 0.0575604 0.0575604 
    Block 361 cell size :
        i : 1
        j : 0.0501837 0.0501837 0.050792 0.050792 
        k : 0.0557184 0.0557184 0.056421 0.056421 
    Block 362 cell size :
        i : 1
        j : 0.0492947 0.0492947 0.0498739 0.0498739 
        k : 0.054807 0.054807 0.0554017 0.0554017 
    Block 363 cell size :
        i : 1
        j : 0.052083 0.052083 0.052193 0.052193 
        k : 0.0500001
    Block 364 cell size :
        i : 1
        j : 0.0483641 0.0483641 0.0489945 0.0489945 
        k : 0.0540763 0.0540763 0.054645 0.054645 
    Block 365 cell size :
        i : 1
        j : 0.052193 0.052193 0.052302 0.052302 
        k : 0.0500005
    Block 366 cell size :
        i : 1
        j : 0.052303 0.052303 0.052412 0.052412 
        k : 0.0500011 0.0500011 0.0500005 0.0500005 
    Block 367 cell size :
        i : 1
        j : 0.052412 0.052412 0.052522 0.052522 
        k : 0.0500019 0.0500019 0.0500011 0.0500011 
    Block 368 cell size :
        i : 1
        j : 0.0472762 0.0472762 0.0480791 0.0480791 
        k : 0.0534424 0.0534424 0.0541555 0.0541555 
    Block 369 cell size :
        i : 1
        j : 0.0460873 0.0460873 0.0470842 0.0470842 
        k : 0.052631 0.052631 0.0535824 0.0535824 
    Block 370 cell size :
        i : 1
        j : 0.052522 0.052522 0.052632 0.052632 
        k : 0.050003 0.050003 0.0500019 0.0500019 
    Block 371 cell size :
        i : 1
        j : 0.0525313 0.0525313 0.052631 0.052631 
        k : 0.0519406 0.0519406 0.0521022 0.0521022 
    Block 372 cell size :
        i : 1
        j : 0.0526212 0.0526212 0.052632 0.052632 
        k : 0.0517968 0.0517968 0.0519406 0.0519406 
    Block 373 cell size :
        i : 1
        j : 0.0522522 0.0522522 0.0524533 0.0524533 
        k : 0.0521279 0.0521279 0.0523025 0.0523025 
    Block 374 cell size :
        i : 1
        j : 0.0518861 0.0518861 0.0521463 0.0521463 
        k : 0.0524217 0.0524217 0.0525267 0.0525267 
    Block 375 cell size :
        i : 1
        j : 0.0515761 0.0515761 0.0518518 0.0518518 
        k : 0.0525957 0.0525957 0.052631 0.052631 
    Block 376 cell size :
        i : 1
        j : 0.0500233
        k : 0.052515 0.052515 0.052632 0.052632 
    Block 377 cell size :
        i : 1
        j : 0.0500236 0.0500236 0.0500203 0.0500203 
        k : 0.052412 0.052412 0.052522 0.052522 
    Block 378 cell size :
        i : 1
        j : 0.0500203 0.0500203 0.0500173 0.0500173 
        k : 0.052302 0.052302 0.052413 0.052413 
    Block 379 cell size :
        i : 1
        j : 0.0500173 0.0500173 0.0500145 0.0500145 
        k : 0.052193 0.052193 0.052303 0.052303 
    Block 380 cell size :
        i : 1
        j : 0.0500145 0.0500145 0.050012 0.050012 
        k : 0.052084 0.052084 0.052193 0.052193 
    Block 381 cell size :
        i : 1
        j : 0.0527111 0.0527111 0.0528004 0.0528004 
        k : 0.0518766 0.0518766 0.0517893 0.0517893 
    Block 382 cell size :
        i : 1
        j : 0.0529593 0.0529593 0.0531581 0.0531581 
        k : 0.0522922 0.0522922 0.0523665 0.0523665 
    Block 383 cell size :
        i : 1
        j : 0.0533441 0.0533441 0.0536973 0.0536973 
        k : 0.0534631 0.0534631 0.0537479 0.0537479 
    Block 384 cell size :
        i : 1
        j : 0.0558329 0.0558329 0.0555187 0.0555187 
        k : 0.053832 0.053832 0.0544329 0.0544329 
    Block 385 cell size :
        i : 1
        j : 0.0577963 0.0577963 0.0581422 0.0581422 
        k : 0.0543413 0.0543413 0.055094 0.055094 
    Block 386 cell size :
        i : 1
        j : 0.0584817 0.0584817 0.0593641 0.0593641 
        k : 0.054226 0.054226 0.0543964 0.0543964 
    Block 387 cell size :
        i : 1
        j : 0.0583782 0.0583782 0.0591721 0.0591721 
        k : 0.0532778 0.0532778 0.0527581 0.0527581 
    Block 388 cell size :
        i : 1
        j : 0.0575604 0.0575604 0.0583455 0.0583455 
        k : 0.0521541 0.0521541 0.0514252 0.0514252 
    Block 389 cell size :
        i : 1
        j : 0.0504678 0.0504678 0.0511089 0.0511089 
        k : 0.056421 0.056421 0.0569671 0.0569671 
    Block 390 cell size :
        i : 1
        j : 0.0496067 0.0496067 0.0501837 0.0501837 
        k : 0.0554017 0.0554017 0.0557991 0.0557991 
    Block 391 cell size :
        i : 1
        j : 0.0487352 0.0487352 0.0492947 0.0492947 
        k : 0.054645 0.054645 0.05496 0.05496 
    Block 392 cell size :
        i : 1
        j : 0.0500001
        k : 0.052083 0.052083 0.052193 0.052193 
    Block 393 cell size :
        i : 1
        j : 0.052193 0.052193 0.052303 0.052303 
        k : 0.0500001
    Block 394 cell size :
        i : 1
        j : 0.0476716 0.0476716 0.0483641 0.0483641 
        k : 0.0541555 0.0541555 0.0545774 0.0545774 
    Block 395 cell size :
        i : 1
        j : 0.052302 0.052302 0.052413 0.052413 
        k : 0.0500005
    Block 396 cell size :
        i : 1
        j : 0.052412 0.052412 0.052522 0.052522 
        k : 0.0500011 0.0500011 0.0500005 0.0500005 
    Block 397 cell size :
        i : 1
        j : 0.052522 0.052522 0.052631 0.052631 
        k : 0.0500019 0.0500019 0.0500011 0.0500011 
    Block 398 cell size :
        i : 1
        j : 0.0462764 0.0462764 0.0472762 0.0472762 
        k : 0.0535824 0.0535824 0.0545011 0.0545011 
    Block 399 cell size :
        i : 1
        j : 0.0449778 0.0449778 0.0460873 0.0460873 
        k : 0.052632 0.052632 0.0537232 0.0537232 
    Block 400 cell size :
        i : 1
        j : 0.0524259 0.0524259 0.0525313 0.0525313 
        k : 0.0519915 0.0519915 0.0521279 0.0521279 
    Block 401 cell size :
        i : 1
        j : 0.0526136 0.0526136 0.0526212 0.0526212 
        k : 0.0518766 0.0518766 0.0519915 0.0519915 
    Block 402 cell size :
        i : 1
        j : 0.0520251 0.0520251 0.0522522 0.0522522 
        k : 0.0523085 0.0523085 0.0524217 0.0524217 
    Block 403 cell size :
        i : 1
        j : 0.0516143 0.0516143 0.0518861 0.0518861 
        k : 0.0525779 0.0525779 0.0525957 0.0525957 
    Block 404 cell size :
        i : 1
        j : 0.0513079 0.0513079 0.0515761 0.0515761 
        k : 0.0526617 0.0526617 0.052632 0.052632 
    Block 405 cell size :
        i : 1
        j : 0.0500236 0.0500236 0.0500203 0.0500203 
        k : 0.052522 0.052522 0.052631 0.052631 
    Block 406 cell size :
        i : 1
        j : 0.0500203 0.0500203 0.0500173 0.0500173 
        k : 0.052413 0.052413 0.052522 0.052522 
    Block 407 cell size :
        i : 1
        j : 0.0500173 0.0500173 0.0500145 0.0500145 
        k : 0.052303 0.052303 0.052412 0.052412 
    Block 408 cell size :
        i : 1
        j : 0.0500145 0.0500145 0.050012 0.050012 
        k : 0.052193 0.052193 0.052303 0.052303 
    Block 409 cell size :
        i : 1
        j : 0.050012 0.050012 0.0500097 0.0500097 
        k : 0.052083 0.052083 0.052193 0.052193 
    Block 410 cell size :
        i : 1
        j : 0.0528004 0.0528004 0.0529012 0.0529012 
        k : 0.0522389 0.0522389 0.0522922 0.0522922 
    Block 411 cell size :
        i : 1
        j : 0.0531581 0.0531581 0.0533945 0.0533945 
        k : 0.0531266 0.0531266 0.0534631 0.0534631 
    Block 412 cell size :
        i : 1
        j : 0.0536973 0.0536973 0.0542035 0.0542035 
        k : 0.0548716 0.0548716 0.0555187 0.0555187 
    Block 413 cell size :
        i : 1
        j : 0.0581422 0.0581422 0.057722 0.057722 
        k : 0.0544329 0.0544329 0.0554728 0.0554728 
    Block 414 cell size :
        i : 1
        j : 0.0593641 0.0593641 0.0609061 0.0609061 
        k : 0.055094 0.055094 0.0561638 0.0561638 
    Block 415 cell size :
        i : 1
        j : 0.0591721 0.0591721 0.060446 0.060446 
        k : 0.0543964 0.0543964 0.0538993 0.0538993 
    Block 416 cell size :
        i : 1
        j : 0.0589878 0.0589878 0.0583455 0.0583455 
        k : 0.0519388 0.0519388 0.0527581 0.0527581 
    Block 417 cell size :
        i : 1
        j : 0.0573882 0.0573882 0.0569671 0.0569671 
        k : 0.05073 0.05073 0.0514252 0.0514252 
    Block 418 cell size :
        i : 1
        j : 0.0498778 0.0498778 0.0504678 0.0504678 
        k : 0.0557991 0.0557991 0.056071 0.056071 
    Block 419 cell size :
        i : 1
        j : 0.0491085 0.0491085 0.0496067 0.0496067 
        k : 0.05496 0.05496 0.0550853 0.0550853 
    Block 420 cell size :
        i : 1
        j : 0.0482141 0.0482141 0.0487352 0.0487352 
        k : 0.0545774 0.0545774 0.05468 0.05468 
    Block 421 cell size :
        i : 1
        j : 0.0500005
        k : 0.052084 0.052084 0.052193 0.052193 
    Block 422 cell size :
        i : 1
        j : 0.0500001
        k : 0.052193 0.052193 0.052303 0.052303 
    Block 423 cell size :
        i : 1
        j : 0.052303 0.052303 0.052412 0.052412 
        k : 0.0500001
    Block 424 cell size :
        i : 1
        j : 0.0468338 0.0468338 0.0476716 0.0476716 
        k : 0.0545011 0.0545011 0.0549504 0.0549504 
    Block 425 cell size :
        i : 1
        j : 0.052413 0.052413 0.052522 0.052522 
        k : 0.0500005
    Block 426 cell size :
        i : 1
        j : 0.052522 0.052522 0.052632 0.052632 
        k : 0.0500011 0.0500011 0.0500005 0.0500005 
    Block 427 cell size :
        i : 1
        j : 0.0439772 0.0439772 0.0449778 0.0449778 
        k : 0.052631 0.052631 0.0535788 0.0535788 
    Block 428 cell size :
        i : 1
        j : 0.0449372 0.0449372 0.0462764 0.0462764 
        k : 0.0537232 0.0537232 0.0551301 0.0551301 
    Block 429 cell size :
        i : 1
        j : 0.0522953 0.0522953 0.0524259 0.0524259 
        k : 0.0522396 0.0522396 0.0523085 0.0523085 
    Block 430 cell size :
        i : 1
        j : 0.0525986 0.0525986 0.0526136 0.0526136 
        k : 0.0522389 0.0522389 0.0522396 0.0522396 
    Block 431 cell size :
        i : 1
        j : 0.051785 0.051785 0.0520251 0.0520251 
        k : 0.0525899 0.0525899 0.0525779 0.0525779 
    Block 432 cell size :
        i : 1
        j : 0.0513417 0.0513417 0.0516143 0.0516143 
        k : 0.0527308 0.0527308 0.0526617 0.0526617 
    Block 433 cell size :
        i : 1
        j : 0.0510684 0.0510684 0.0513079 0.0513079 
        k : 0.0526975 0.0526975 0.052631 0.052631 
    Block 434 cell size :
        i : 1
        j : 0.0500203 0.0500203 0.0500173 0.0500173 
        k : 0.052522 0.052522 0.052632 0.052632 
    Block 435 cell size :
        i : 1
        j : 0.0500173 0.0500173 0.0500145 0.0500145 
        k : 0.052412 0.052412 0.052522 0.052522 
    Block 436 cell size :
        i : 1
        j : 0.0500145 0.0500145 0.050012 0.050012 
        k : 0.052303 0.052303 0.052412 0.052412 
    Block 437 cell size :
        i : 1
        j : 0.050012 0.050012 0.0500097 0.0500097 
        k : 0.052193 0.052193 0.052302 0.052302 
    Block 438 cell size :
        i : 1
        j : 0.0500097 0.0500097 0.0500077 0.0500077 
        k : 0.052083 0.052083 0.052193 0.052193 
    Block 439 cell size :
        i : 1
        j : 0.0529012 0.0529012 0.0530092 0.0530092 
        k : 0.0528226 0.0528226 0.0531266 0.0531266 
    Block 440 cell size :
        i : 1
        j : 0.0533945 0.0533945 0.0536671 0.0536671 
        k : 0.0541292 0.0541292 0.0548716 0.0548716 
    Block 441 cell size :
        i : 1
        j : 0.0564101 0.0564101 0.057722 0.057722 
        k : 0.0550214 0.0550214 0.0542035 0.0542035 
    Block 442 cell size :
        i : 1
        j : 0.0609061 0.0609061 0.0609724 0.0609724 
        k : 0.0554728 0.0554728 0.0576916 0.0576916 
    Block 443 cell size :
        i : 1
        j : 0.060446 0.060446 0.0628306 0.0628306 
        k : 0.0561638 0.0561638 0.0563582 0.0563582 
    Block 444 cell size :
        i : 1
        j : 0.0599005 0.0599005 0.0589878 0.0589878 
        k : 0.0526445 0.0526445 0.0538993 0.0538993 
    Block 445 cell size :
        i : 1
        j : 0.0578342 0.0578342 0.0573882 0.0573882 
        k : 0.0510271 0.0510271 0.0519388 0.0519388 
    Block 446 cell size :
        i : 1
        j : 0.0562476 0.0562476 0.056071 0.056071 
        k : 0.050104 0.050104 0.05073 0.05073 
    Block 447 cell size :
        i : 1
        j : 0.0494169 0.0494169 0.0498778 0.0498778 
        k : 0.0550853 0.0550853 0.0551002 0.0551002 
    Block 448 cell size :
        i : 1
        j : 0.0487444 0.0487444 0.0491085 0.0491085 
        k : 0.05468 0.05468 0.0545416 0.0545416 
    Block 449 cell size :
        i : 1
        j : 0.0477623 0.0477623 0.0482141 0.0482141 
        k : 0.0549504 0.0549504 0.0548972 0.0548972 
    Block 450 cell size :
        i : 1
        j : 0.0500011 0.0500011 0.0500005 0.0500005 
        k : 0.052083 0.052083 0.052193 0.052193 
    Block 451 cell size :
        i : 1
        j : 0.0500005
        k : 0.052193 0.052193 0.052302 0.052302 
    Block 452 cell size :
        i : 1
        j : 0.0500001
        k : 0.052303 0.052303 0.052412 0.052412 
    Block 453 cell size :
        i : 1
        j : 0.052412 0.052412 0.052522 0.052522 
        k : 0.0500001
    Block 454 cell size :
        i : 1
        j : 0.045514 0.045514 0.0468338 0.0468338 
        k : 0.0551301 0.0551301 0.05647 0.05647 
    Block 455 cell size :
        i : 1
        j : 0.052522 0.052522 0.052631 0.052631 
        k : 0.0500005
    Block 456 cell size :
        i : 1
        j : 0.0433185 0.0433185 0.0439772 0.0439772 
        k : 0.052632 0.052632 0.0530145 0.0530145 
    Block 457 cell size :
        i : 1
        j : 0.0435527 0.0435527 0.0449372 0.0449372 
        k : 0.0535788 0.0535788 0.0552078 0.0552078 
    Block 458 cell size :
        i : 1
        j : 0.0520833 0.0520833 0.0522953 0.0522953 
        k : 0.0525995 0.0525995 0.0525899 0.0525899 
    Block 459 cell size :
        i : 1
        j : 0.0525986 0.0525986 0.052591 0.052591 
        k : 0.0525995 0.0525995 0.0528226 0.0528226 
    Block 460 cell size :
        i : 1
        j : 0.0515508 0.0515508 0.051785 0.051785 
        k : 0.0529066 0.0529066 0.0527308 0.0527308 
    Block 461 cell size :
        i : 1
        j : 0.0510839 0.0510839 0.0513417 0.0513417 
        k : 0.0528113 0.0528113 0.0526975 0.0526975 
    Block 462 cell size :
        i : 1
        j : 0.050895 0.050895 0.0510684 0.0510684 
        k : 0.0526913 0.0526913 0.052632 0.052632 
    Block 463 cell size :
        i : 1
        j : 0.0500173 0.0500173 0.0500145 0.0500145 
        k : 0.052522 0.052522 0.052632 0.052632 
    Block 464 cell size :
        i : 1
        j : 0.0500145 0.0500145 0.050012 0.050012 
        k : 0.052412 0.052412 0.052522 0.052522 
    Block 465 cell size :
        i : 1
        j : 0.050012 0.050012 0.0500097 0.0500097 
        k : 0.052302 0.052302 0.052412 0.052412 
    Block 466 cell size :
        i : 1
        j : 0.0500097 0.0500097 0.0500077 0.0500077 
        k : 0.052193 0.052193 0.052303 0.052303 
    Block 467 cell size :
        i : 1
        j : 0.0500077 0.0500077 0.0500059 0.0500059 
        k : 0.052084 0.052084 0.052193 0.052193 
    Block 468 cell size :
        i : 1
        j : 0.0530092 0.0530092 0.0530461 0.0530461 
        k : 0.0535419 0.0535419 0.0541292 0.0541292 
    Block 469 cell size :
        i : 1
        j : 0.0549908 0.0549908 0.0564101 0.0564101 
        k : 0.053954 0.053954 0.0536671 0.0536671 
    Block 470 cell size :
        i : 1
        j : 0.0578521 0.0578521 0.0609724 0.0609724 
        k : 0.0565391 0.0565391 0.0550214 0.0550214 
    Block 471 cell size :
        i : 1
        j : 0.0628306 0.0628306 0.0720204 0.0720204 
        k : 0.0576916 0.0576916 0.0641313 0.0641313 
    Block 472 cell size :
        i : 1
        j : 0.0612921 0.0612921 0.0599005 0.0599005 
        k : 0.0535037 0.0535037 0.0563582 0.0563582 
    Block 473 cell size :
        i : 1
        j : 0.0580074 0.0580074 0.0578342 0.0578342 
        k : 0.0512831 0.0512831 0.0526445 0.0526445 
    Block 474 cell size :
        i : 1
        j : 0.0562492 0.0562492 0.0562476 0.0562476 
        k : 0.0502876 0.0502876 0.0510271 0.0510271 
    Block 475 cell size :
        i : 1
        j : 0.0549756 0.0549756 0.0551002 0.0551002 
        k : 0.0496435 0.0496435 0.050104 0.050104 
    Block 476 cell size :
        i : 1
        j : 0.0494169 0.0494169 0.0491494 0.0491494 
        k : 0.0542154 0.0542154 0.0545416 0.0545416 
    Block 477 cell size :
        i : 1
        j : 0.0487444 0.0487444 0.0486102 0.0486102 
        k : 0.0543427 0.0543427 0.0548972 0.0548972 
    Block 478 cell size :
        i : 1
        j : 0.0477623 0.0477623 0.0475904 0.0475904 
        k : 0.0558833 0.0558833 0.05647 0.05647 
    Block 479 cell size :
        i : 1
        j : 0.0500019 0.0500019 0.0500011 0.0500011 
        k : 0.052083 0.052083 0.052193 0.052193 
    Block 480 cell size :
        i : 1
        j : 0.0500011 0.0500011 0.0500005 0.0500005 
        k : 0.052193 0.052193 0.052303 0.052303 
    Block 481 cell size :
        i : 1
        j : 0.0500005
        k : 0.052302 0.052302 0.052413 0.052413 
    Block 482 cell size :
        i : 1
        j : 0.0500001
        k : 0.052412 0.052412 0.052522 0.052522 
    Block 483 cell size :
        i : 1
        j : 0.052522 0.052522 0.052632 0.052632 
        k : 0.0500001
    Block 484 cell size :
        i : 1
        j : 0.0418671 0.0418671 0.045514 0.045514 
        k : 0.0552078 0.0552078 0.0616989 0.0616989 
    Block 485 cell size :
        i : 1
        j : 0.0429624 0.0429624 0.0433185 0.0433185 
        k : 0.052631 0.052631 0.0524961 0.0524961 
    Block 486 cell size :
        i : 1
        j : 0.0430058 0.0430058 0.0435527 0.0435527 
        k : 0.0530145 0.0530145 0.053279 0.053279 
    Block 487 cell size :
        i : 1
        j : 0.0520833 0.0520833 0.051969 0.051969 
        k : 0.0529066 0.0529066 0.0532974 0.0532974 
    Block 488 cell size :
        i : 1
        j : 0.052591 0.052591 0.0523954 0.0523954 
        k : 0.0532974 0.0532974 0.0535419 0.0535419 
    Block 489 cell size :
        i : 1
        j : 0.0512471 0.0512471 0.0515508 0.0515508 
        k : 0.052993 0.052993 0.0528113 0.0528113 
    Block 490 cell size :
        i : 1
        j : 0.0508575 0.0508575 0.0510839 0.0510839 
        k : 0.0527875 0.0527875 0.0526913 0.0526913 
    Block 491 cell size :
        i : 1
        j : 0.050825 0.050825 0.050895 0.050895 
        k : 0.052634 0.052634 0.052632 0.052632 
    Block 492 cell size :
        i : 1
        j : 0.0500145 0.0500145 0.050012 0.050012 
        k : 0.052522 0.052522 0.052631 0.052631 
    Block 493 cell size :
        i : 1
        j : 0.050012 0.050012 0.0500097 0.0500097 
        k : 0.052412 0.052412 0.052522 0.052522 
    Block 494 cell size :
        i : 1
        j : 0.0500097 0.0500097 0.0500077 0.0500077 
        k : 0.052303 0.052303 0.052413 0.052413 
    Block 495 cell size :
        i : 1
        j : 0.0500077 0.0500077 0.0500059 0.0500059 
        k : 0.052193 0.052193 0.052303 0.052303 
    Block 496 cell size :
        i : 1
        j : 0.0500059 0.0500059 0.0500043 0.0500043 
        k : 0.052083 0.052083 0.052193 0.052193 
    Block 497 cell size :
        i : 1
        j : 0.054002 0.054002 0.0549908 0.0549908 
        k : 0.0529391 0.0529391 0.0530461 0.0530461 
    Block 498 cell size :
        i : 1
        j : 0.055248 0.055248 0.0578521 0.0578521 
        k : 0.0539984 0.0539984 0.053954 0.053954 
    Block 499 cell size :
        i : 1
        j : 0.056428 0.056428 0.0720204 0.0720204 
        k : 0.0632508 0.0632508 0.0565391 0.0565391 
    Block 500 cell size :
        i : 1
        j : 0.0633311 0.0633311 0.0612921 0.0612921 
        k : 0.0523334 0.0523334 0.0641313 0.0641313 
    Block 501 cell size :
        i : 1
        j : 0.057814 0.057814 0.0580074 0.0580074 
        k : 0.0511276 0.0511276 0.0535037 0.0535037 
    Block 502 cell size :
        i : 1
        j : 0.0559401 0.0559401 0.0562492 0.0562492 
        k : 0.0503646 0.0503646 0.0512831 0.0512831 
    Block 503 cell size :
        i : 1
        j : 0.0546794 0.0546794 0.0549756 0.0549756 
        k : 0.0498067 0.0498067 0.0502876 0.0502876 
    Block 504 cell size :
        i : 1
        j : 0.0537925 0.0537925 0.0542154 0.0542154 
        k : 0.049406 0.049406 0.0496435 0.0496435 
    Block 505 cell size :
        i : 1
        j : 0.0536243 0.0536243 0.0543427 0.0543427 
        k : 0.0491365 0.0491365 0.0491494 0.0491494 
    Block 506 cell size :
        i : 1
        j : 0.050003 0.050003 0.0500019 0.0500019 
        k : 0.052084 0.052084 0.052193 0.052193 
    Block 507 cell size :
        i : 1
        j : 0.0545976 0.0545976 0.0558833 0.0558833 
        k : 0.048953 0.048953 0.0486102 0.0486102 
    Block 508 cell size :
        i : 1
        j : 0.0573098 0.0573098 0.0616989 0.0616989 
        k : 0.05 0.05 0.0475904 0.0475904 
    Block 509 cell size :
        i : 1
        j : 0.0500019 0.0500019 0.0500011 0.0500011 
        k : 0.052193 0.052193 0.052303 0.052303 
    Block 510 cell size :
        i : 1
        j : 0.0500011 0.0500011 0.0500005 0.0500005 
        k : 0.052303 0.052303 0.052412 0.052412 
    Block 511 cell size :
        i : 1
        j : 0.0500005
        k : 0.052413 0.052413 0.052522 0.052522 
    Block 512 cell size :
        i : 1
        j : 0.0500001
        k : 0.052522 0.052522 0.052632 0.052632 
    Block 513 cell size :
        i : 1
        j : 0.0429624 0.0429624 0.042759 0.042759 
        k : 0.0522521 0.0522521 0.052632 0.052632 
    Block 514 cell size :
        i : 1
        j : 0.0418671 0.0418671 0.0425591 0.0425591 
        k : 0.051079 0.051079 0.053279 0.053279 
    Block 515 cell size :
        i : 1
        j : 0.0430058 0.0430058 0.0428406 0.0428406 
        k : 0.0520725 0.0520725 0.0524961 0.0524961 
    Block 516 cell size :
        i : 1
        j : 0.051969 0.051969 0.0517412 0.0517412 
        k : 0.052993 0.052993 0.0533249 0.0533249 
    Block 517 cell size :
        i : 1
        j : 0.0523954 0.0523954 0.0522004 0.0522004 
        k : 0.0533249 0.0533249 0.054002 0.054002 
    Block 518 cell size :
        i : 1
        j : 0.0512471 0.0512471 0.0510992 0.0510992 
        k : 0.0527875 0.0527875 0.0530368 0.0530368 
    Block 519 cell size :
        i : 1
        j : 0.0508575 0.0508575 0.0508402 0.0508402 
        k : 0.052634 0.052634 0.0527041 0.0527041 
    Block 520 cell size :
        i : 1
        j : 0.050825 0.050825 0.0509455 0.0509455 
        k : 0.052631 0.052631 0.0525511 0.0525511 
    Block 521 cell size :
        i : 1
        j : 0.050012 0.050012 0.0500097 0.0500097 
        k : 0.052522 0.052522 0.052632 0.052632 
    Block 522 cell size :
        i : 1
        j : 0.0500097 0.0500097 0.0500077 0.0500077 
        k : 0.052413 0.052413 0.052522 0.052522 
    Block 523 cell size :
        i : 1
        j : 0.0500077 0.0500077 0.0500059 0.0500059 
        k : 0.052303 0.052303 0.052412 0.052412 
    Block 524 cell size :
        i : 1
        j : 0.0500059 0.0500059 0.0500043 0.0500043 
        k : 0.052193 0.052193 0.052302 0.052302 
    Block 525 cell size :
        i : 1
        j : 0.0500043 0.0500043 0.050003 0.050003 
        k : 0.052083 0.052083 0.052193 0.052193 
    Block 526 cell size :
        i : 1
        j : 0.0539963 0.0539963 0.055248 0.055248 
        k : 0.0524536 0.0524536 0.0529391 0.0529391 
    Block 527 cell size :
        i : 1
        j : 0.053888 0.053888 0.056428 0.056428 
        k : 0.0520459 0.0520459 0.0539984 0.0539984 
    Block 528 cell size :
        i : 1
        j : 0.0353274 0.0353274 0.0632508 0.0632508 
        k : 0.0460319 0.0460319 0.0489375 0.0489375 
    Block 529 cell size :
        i : 1
        j : 0.0460319 0.0460319 0.0459022 0.0459022 
        k : 0.037381 0.037381 0.0633311 0.0633311 
    Block 530 cell size :
        i : 1
        j : 0.0554123 0.0554123 0.057814 0.057814 
        k : 0.0501245 0.0501245 0.0523334 0.0523334 
    Block 531 cell size :
        i : 1
        j : 0.0549971 0.0549971 0.0559401 0.0559401 
        k : 0.0501854 0.0501854 0.0511276 0.0511276 
    Block 532 cell size :
        i : 1
        j : 0.0541072 0.0541072 0.0546794 0.0546794 
        k : 0.0498959 0.0498959 0.0503646 0.0503646 
    Block 533 cell size :
        i : 1
        j : 0.0533963 0.0533963 0.0537925 0.0537925 
        k : 0.0495242 0.0495242 0.0498067 0.0498067 
    Block 534 cell size :
        i : 1
        j : 0.0528856 0.0528856 0.0536243 0.0536243 
        k : 0.0494205 0.0494205 0.049406 0.049406 
    Block 535 cell size :
        i : 1
        j : 0.0534443 0.0534443 0.0545976 0.0545976 
        k : 0.0494351 0.0494351 0.0491365 0.0491365 
    Block 536 cell size :
        i : 1
        j : 0.0500043 0.0500043 0.050003 0.050003 
        k : 0.052083 0.052083 0.052193 0.052193 
    Block 537 cell size :
        i : 1
        j : 0.050003 0.050003 0.0500019 0.0500019 
        k : 0.052193 0.052193 0.052302 0.052302 
    Block 538 cell size :
        i : 1
        j : 0.055075 0.055075 0.0573098 0.0573098 
        k : 0.05 0.05 0.048953 0.048953 
    Block 539 cell size :
        i : 1
        j : 0.0505673 0.0505673 0.05 0.05 
        k : 0.051079 0.051079 0.0516591 0.0516591 
    Block 540 cell size :
        i : 1
        j : 0.0500019 0.0500019 0.0500011 0.0500011 
        k : 0.052303 0.052303 0.052412 0.052412 
    Block 541 cell size :
        i : 1
        j : 0.0500011 0.0500011 0.0500005 0.0500005 
        k : 0.052412 0.052412 0.052522 0.052522 
    Block 542 cell size :
        i : 1
        j : 0.0500005
        k : 0.052522 0.052522 0.052631 0.052631 
    Block 543 cell size :
        i : 1
        j : 0.042759 0.042759 0.0426164 0.0426164 
        k : 0.05216 0.05216 0.052632 0.052632 
    Block 544 cell size :
        i : 1
        j : 0.0428406 0.0428406 0.0427187 0.0427187 
        k : 0.0517472 0.0517472 0.0522521 0.0522521 
    Block 545 cell size :
        i : 1
        j : 0.0425591 0.0425591 0.0426994 0.0426994 
        k : 0.051079 0.051079 0.0520725 0.0520725 
    Block 546 cell size :
        i : 1
        j : 0.0513629 0.0513629 0.0517412 0.0517412 
        k : 0.0533261 0.0533261 0.0530368 0.0530368 
    Block 547 cell size :
        i : 1
        j : 0.0533261 0.0533261 0.0539963 0.0539963 
        k : 0.0517758 0.0517758 0.0522004 0.0522004 
    Block 548 cell size :
        i : 1
        j : 0.0527041 0.0527041 0.0527699 0.0527699 
        k : 0.0508864 0.0508864 0.0510992 0.0510992 
    Block 549 cell size :
        i : 1
        j : 0.0508745 0.0508745 0.0508402 0.0508402 
        k : 0.0524632 0.0524632 0.0525511 0.0525511 
    Block 550 cell size :
        i : 1
        j : 0.0509455 0.0509455 0.0511956 0.0511956 
        k : 0.052632 0.052632 0.0524146 0.0524146 
    Block 551 cell size :
        i : 1
        j : 0.0500097 0.0500097 0.0500077 0.0500077 
[...]
        i : 1
        j : 0.0050813 0.0050813 0 0 
        k : 0.00494947 0.00494947 0.00511496 0.00511496 
    Block 4293 cell size :
        i : 1
        j : 0.00494947 0.00494947 0 0 
        k : 0.00408969 0.00408969 0.00516105 0.00516105 
    Block 4294 cell size :
        i : 1
        j : 0.0028628 0.0028628 0 0 
        k : 0.005082 0.005082 0.00516105 0.00516105 
    Block 4295 cell size :
        i : 1
        j : 0.0039722 0.0039722 0 0 
        k : 0.00497223 0.00497223 0.005082 0.005082 
    Block 4296 cell size :
        i : 1
        j : 0.00449429 0.00449429 0 0 
        k : 0.00399741 0.00399741 0.00547489 0.00547489 
    Block 4297 cell size :
        i : 1
        j : 0.00420765 0.00420765 0 0 
        k : 0.00407068 0.00407068 0.0045139 0.0045139 
    Block 4298 cell size :
        i : 1
        j : 0.00407068 0.00407068 0 0 
        k : 0.00395698 0.00395698 0.00449429 0.00449429 
    Block 4299 cell size :
        i : 1
        j : 0.0039722 0.0039722 0 0 
        k : 0.00367353 0.00367353 0.00485898 0.00485898 
    Block 4300 cell size :
        i : 1
        j : 0.00431868 0.00431868 0 0 
        k : 0.00421619 0.00421619 0.00485898 0.00485898 
    Block 4301 cell size :
        i : 1
        j : 0.00431868 0.00431868 0 0 
        k : 0.00509585 0.00509585 0.00547489 0.00547489 
    Block 4302 cell size :
        i : 1
        j : 0.00267076 0.00267076 0 0 
        k : 0.00333545 0.00333545 0.00351956 0.00351956 
    Block 4303 cell size :
        i : 1
        j : 0.00351956 0.00351956 0 0 
        k : 0.003116 0.003116 0.00455181 0.00455181 
    Block 4304 cell size :
        i : 1
        j : 0.00389408 0.00389408 0 0 
        k : 0.00252381 0.00252381 0.00399309 0.00399309 
    Block 4305 cell size :
        i : 1
        j : 0.00389408 0.00389408 0 0 
        k : 0.00267076 0.00267076 0.0040208 0.0040208 
    Block 4306 cell size :
        i : 1
        j : 0.00252381 0.00252381 0 0 
        k : 0.00265634 0.00265634 0.00268888 0.00268888 
    Block 4307 cell size :
        i : 1
        j : 0.00268888 0.00268888 0 0 
        k : 0.00268983 0.00268983 0.002952 0.002952 
    Block 4308 cell size :
        i : 1
        j : 0.00203557 0.00203557 0 0 
        k : 0.00214618 0.00214618 0.00268983 0.00268983 
    Block 4309 cell size :
        i : 1
        j : 0.00201943 0.00201943 0 0 
        k : 0.00214618 0.00214618 0.00288602 0.00288602 
    Block 4310 cell size :
        i : 1
        j : 0.0011832 0.0011832 0 0 
        k : 0.00222692 0.00222692 0.00288602 0.00288602 
    Block 4311 cell size :
        i : 1
        j : 0.00100931 0.00100931 0 0 
        k : 0.00222692 0.00222692 0.00268786 0.00268786 
    Block 4312 cell size :
        i : 1
        j : 0.00443014 0.00443014 0 0 
        k : 0.00443682 0.00443682 0.00534649 0.00534649 
    Block 4313 cell size :
        i : 1
        j : 0.00458007 0.00458007 0 0 
        k : 0.00417306 0.00417306 0.00534649 0.00534649 
    Block 4314 cell size :
        i : 1
        j : 0.00472474 0.00472474 0 0 
        k : 0.00386012 0.00386012 0.00505379 0.00505379 
    Block 4315 cell size :
        i : 1
        j : 0.00466517 0.00466517 0 0 
        k : 0.00382106 0.00382106 0.00472474 0.00472474 
    Block 4316 cell size :
        i : 1
        j : 0.00495089 0.00495089 0 0 
        k : 0.00505379 0.00505379 0.00547442 0.00547442 
    Block 4317 cell size :
        i : 1
        j : 0.00450664 0.00450664 0 0 
        k : 0.00395063 0.00395063 0.00500403 0.00500403 
    Block 4318 cell size :
        i : 1
        j : 0.00375367 0.00375367 0 0 
        k : 0.00443682 0.00443682 0.00500403 0.00500403 
    Block 4319 cell size :
        i : 1
        j : 0.00350746 0.00350746 0 0 
        k : 0.00395063 0.00395063 0.0042977 0.0042977 
    Block 4320 cell size :
        i : 1
        j : 0.00452106 0.00452106 0 0 
        k : 0.0042977 0.0042977 0.00466517 0.00466517 
    Block 4321 cell size :
        i : 1
        j : 0.00393404 0.00393404 0 0 
        k : 0.00490476 0.00490476 0.00495089 0.00495089 
    Block 4322 cell size :
        i : 1
        j : 0.00393404 0.00393404 0 0 
        k : 0.00429524 0.00429524 0.00488139 0.00488139 
    Block 4323 cell size :
        i : 1
        j : 0.00316893 0.00316893 0 0 
        k : 0.00442122 0.00442122 0.00488139 0.00488139 
    Block 4324 cell size :
        i : 1
        j : 0.00316893 0.00316893 0 0 
        k : 0.00485555 0.00485555 0.00525245 0.00525245 
    Block 4325 cell size :
        i : 1
        j : 0.00432334 0.00432334 0 0 
        k : 0.00182679 0.00182679 0.00525245 0.00525245 
    Block 4326 cell size :
        i : 1
        j : 0.00432334 0.00432334 0 0 
        k : 0.00202513 0.00202513 0.00544705 0.00544705 
    Block 4327 cell size :
        i : 1
        j : 0.00305105 0.00305105 0 0 
        k : 0.00452154 0.00452154 0.00458007 0.00458007 
    Block 4328 cell size :
        i : 1
        j : 0.00418374 0.00418374 0 0 
        k : 0.00326183 0.00326183 0.00452154 0.00452154 
    Block 4329 cell size :
        i : 1
        j : 0.0038708 0.0038708 0 0 
        k : 0.00369582 0.00369582 0.00455181 0.00455181 
    Block 4330 cell size :
        i : 1
        j : 0.0038708 0.0038708 0 0 
        k : 0.0045139 0.0045139 0.00587974 0.00587974 
    Block 4331 cell size :
        i : 1
        j : 0.00320824 0.00320824 0 0 
        k : 0.00405784 0.00405784 0.00463883 0.00463883 
    Block 4332 cell size :
        i : 1
        j : 0.0039395 0.0039395 0 0 
        k : 0.00405784 0.00405784 0.00418374 0.00418374 
    Block 4333 cell size :
        i : 1
        j : 0.00470179 0.00470179 0 0 
        k : 0.00451715 0.00451715 0.00563789 0.00563789 
    Block 4334 cell size :
        i : 1
        j : 0.00449056 0.00449056 0 0 
        k : 0.00450781 0.00450781 0.00563789 0.00563789 
    Block 4335 cell size :
        i : 1
        j : 0.00449363 0.00449363 0 0 
        k : 0.00383809 0.00383809 0.00463883 0.00463883 
    Block 4336 cell size :
        i : 1
        j : 0.00506741 0.00506741 0 0 
        k : 0.00383809 0.00383809 0.00566908 0.00566908 
    Block 4337 cell size :
        i : 1
        j : 0.00451385 0.00451385 0 0 
        k : 0.00451715 0.00451715 0.00566908 0.00566908 
    Block 4338 cell size :
        i : 1
        j : 0.00449056 0.00449056 0 0 
        k : 0.00411232 0.00411232 0.00518127 0.00518127 
    Block 4339 cell size :
        i : 1
        j : 0.00379651 0.00379651 0 0 
        k : 0.00408969 0.00408969 0.00518127 0.00518127 
    Block 4340 cell size :
        i : 1
        j : 0.00379651 0.00379651 0 0 
        k : 0.00546014 0.00546014 0.00579749 0.00579749 
    Block 4341 cell size :
        i : 1
        j : 0.0028628 0.0028628 0 0 
        k : 0.00579749 0.00579749 0.00584416 0.00584416 
    Block 4342 cell size :
        i : 1
        j : 0.00547858 0.00547858 0 0 
        k : 0.00367353 0.00367353 0.00584416 0.00584416 
    Block 4343 cell size :
        i : 1
        j : 0.00547858 0.00547858 0 0 
        k : 0.00495847 0.00495847 0.00651161 0.00651161 
    Block 4344 cell size :
        i : 1
        j : 0.00570577 0.00570577 0 0 
        k : 0.00374668 0.00374668 0.00587974 0.00587974 
    Block 4345 cell size :
        i : 1
        j : 0.00570577 0.00570577 0 0 
        k : 0.00509585 0.00509585 0.00651161 0.00651161 
    Block 4346 cell size :
        i : 1
        j : 0.00360321 0.00360321 0 0 
        k : 0.00360873 0.00360873 0.0040208 0.0040208 
    Block 4347 cell size :
        i : 1
        j : 0.00360321 0.00360321 0 0 
        k : 0.00369582 0.00369582 0.00442924 0.00442924 
    Block 4348 cell size :
        i : 1
        j : 0.00265634 0.00265634 0 0 
        k : 0.002862 0.002862 0.00299819 0.00299819 
    Block 4349 cell size :
        i : 1
        j : 0.0034354 0.0034354 0 0 
        k : 0.002862 0.002862 0.00360873 0.00360873 
    Block 4350 cell size :
        i : 1
        j : 0.00211461 0.00211461 0 0 
        k : 0.00243336 0.00243336 0.00299819 0.00299819 
    Block 4351 cell size :
        i : 1
        j : 0.00203557 0.00203557 0 0 
        k : 0.00243336 0.00243336 0.0029036 0.0029036 
    Block 4352 cell size :
        i : 1
        j : 0.00119324 0.00119324 0 0 
        k : 0.00228097 0.00228097 0.0029036 0.0029036 
    Block 4353 cell size :
        i : 1
        j : 0.0011832 0.0011832 0 0 
        k : 0.00228097 0.00228097 0.0029273 0.0029273 
    Block 4354 cell size :
        i : 1
        j : 0.000114 0.000114 0 0 
        k : 0.000114 0.000114 0.00016122 0.00016122 
    Block 4355 cell size :
        i : 1
        j : 0.00375367 0.00375367 0 0 
        k : 0.00357233 0.00357233 0.00378402 0.00378402 
    Block 4356 cell size :
        i : 1
        j : 0.00334529 0.00334529 0 0 
        k : 0.00305105 0.00305105 0.00378402 0.00378402 
    Block 4357 cell size :
        i : 1
        j : 0.00428761 0.00428761 0 0 
        k : 0.00353193 0.00353193 0.00452106 0.00452106 
    Block 4358 cell size :
        i : 1
        j : 0.00387442 0.00387442 0 0 
        k : 0.00428761 0.00428761 0.00490476 0.00490476 
    Block 4359 cell size :
        i : 1
        j : 0.00350746 0.00350746 0 0 
        k : 0.0034449 0.0034449 0.00384032 0.00384032 
    Block 4360 cell size :
        i : 1
        j : 0.00338566 0.00338566 0 0 
        k : 0.00357233 0.00357233 0.00384032 0.00384032 
    Block 4361 cell size :
        i : 1
        j : 0.00316795 0.00316795 0 0 
        k : 0.0027314 0.0027314 0.00353193 0.00353193 
    Block 4362 cell size :
        i : 1
        j : 0.0027314 0.0027314 0 0 
        k : 0.00256057 0.00256057 0.0034449 0.0034449 
    Block 4363 cell size :
        i : 1
        j : 0.00294532 0.00294532 0 0 
        k : 0.00367568 0.00367568 0.00387442 0.00387442 
    Block 4364 cell size :
        i : 1
        j : 0.00294532 0.00294532 0 0 
        k : 0.00442122 0.00442122 0.00467278 0.00467278 
    Block 4365 cell size :
        i : 1
        j : 0.00398941 0.00398941 0 0 
        k : 0.00161519 0.00161519 0.00467278 0.00467278 
    Block 4366 cell size :
        i : 1
        j : 0.00398941 0.00398941 0 0 
        k : 0.00182679 0.00182679 0.0049052 0.0049052 
    Block 4367 cell size :
        i : 1
        j : 0.00334529 0.00334529 0 0 
        k : 0.00335308 0.00335308 0.00404169 0.00404169 
    Block 4368 cell size :
        i : 1
        j : 0.00396452 0.00396452 0 0 
        k : 0.0039395 0.0039395 0.00404169 0.00404169 
    Block 4369 cell size :
        i : 1
        j : 0.0043303 0.0043303 0 0 
        k : 0.00340815 0.00340815 0.00442924 0.00442924 
    Block 4370 cell size :
        i : 1
        j : 0.0043303 0.0043303 0 0 
        k : 0.00374668 0.00374668 0.00464842 0.00464842 
    Block 4371 cell size :
        i : 1
        j : 0.0027088 0.0027088 0 0 
        k : 0.00377942 0.00377942 0.00396452 0.00396452 
    Block 4372 cell size :
        i : 1
        j : 0.00377942 0.00377942 0 0 
        k : 0.00268968 0.00268968 0.00427487 0.00427487 
    Block 4373 cell size :
        i : 1
        j : 0.00449363 0.00449363 0 0 
        k : 0.00427487 0.00427487 0.00464064 0.00464064 
    Block 4374 cell size :
        i : 1
        j : 0.00354359 0.00354359 0 0 
        k : 0.00447599 0.00447599 0.00464064 0.00464064 
    Block 4375 cell size :
        i : 1
        j : 0.00451385 0.00451385 0 0 
        k : 0.00447599 0.00447599 0.00574144 0.00574144 
    Block 4376 cell size :
        i : 1
        j : 0.00464339 0.00464339 0 0 
        k : 0.00411232 0.00411232 0.00574144 0.00574144 
    Block 4377 cell size :
        i : 1
        j : 0.00464339 0.00464339 0 0 
        k : 0.00485634 0.00485634 0.00615196 0.00615196 
    Block 4378 cell size :
        i : 1
        j : 0.00441138 0.00441138 0 0 
        k : 0.00546014 0.00546014 0.00615196 0.00615196 
    Block 4379 cell size :
        i : 1
        j : 0.00441138 0.00441138 0 0 
        k : 0.0043076 0.0043076 0.0053304 0.0053304 
    Block 4380 cell size :
        i : 1
        j : 0.00434783 0.00434783 0 0 
        k : 0.00395183 0.00395183 0.00464842 0.00464842 
    Block 4381 cell size :
        i : 1
        j : 0.00434783 0.00434783 0 0 
        k : 0.00495847 0.00495847 0.0053304 0.0053304 
    Block 4382 cell size :
        i : 1
        j : 0.0034354 0.0034354 0 0 
        k : 0.00322905 0.00322905 0.00346602 0.00346602 
    Block 4383 cell size :
        i : 1
        j : 0.00322905 0.00322905 0 0 
        k : 0.00340815 0.00340815 0.0034517 0.0034517 
    Block 4384 cell size :
        i : 1
        j : 0.00226617 0.00226617 0 0 
        k : 0.00274279 0.00274279 0.00346602 0.00346602 
    Block 4385 cell size :
        i : 1
        j : 0.00211461 0.00211461 0 0 
        k : 0.00274279 0.00274279 0.00336972 0.00336972 
    Block 4386 cell size :
        i : 1
        j : 0.00126487 0.00126487 0 0 
        k : 0.00267477 0.00267477 0.00336972 0.00336972 
    Block 4387 cell size :
        i : 1
        j : 0.00119324 0.00119324 0 0 
        k : 0.00267477 0.00267477 0.00330618 0.00330618 
    Block 4388 cell size :
        i : 1
        j : 0.00338566 0.00338566 0 0 
        k : 0.00348331 0.00348331 0.00368103 0.00368103 
    Block 4389 cell size :
        i : 1
        j : 0.00290185 0.00290185 0 0 
        k : 0.00335308 0.00335308 0.00368103 0.00368103 
    Block 4390 cell size :
        i : 1
        j : 0.00295341 0.00295341 0 0 
        k : 0.00367568 0.00367568 0.0040821 0.0040821 
    Block 4391 cell size :
        i : 1
        j : 0.00295341 0.00295341 0 0 
        k : 0.00248497 0.00248497 0.00316795 0.00316795 
    Block 4392 cell size :
        i : 1
        j : 0.00281641 0.00281641 0 0 
        k : 0.00248497 0.00248497 0.00372926 0.00372926 
    Block 4393 cell size :
        i : 1
        j : 0.00249015 0.00249015 0 0 
        k : 0.00256057 0.00256057 0.00281641 0.00281641 
    Block 4394 cell size :
        i : 1
        j : 0.00249015 0.00249015 0 0 
        k : 0.00309784 0.00309784 0.00348331 0.00348331 
    Block 4395 cell size :
        i : 1
        j : 0.00374001 0.00374001 0 0 
        k : 0.00135916 0.00135916 0.0040821 0.0040821 
    Block 4396 cell size :
        i : 1
        j : 0.00374001 0.00374001 0 0 
        k : 0.00161519 0.00161519 0.00440577 0.00440577 
    Block 4397 cell size :
        i : 1
        j : 0.00290185 0.00290185 0 0 
        k : 0.00286429 0.00286429 0.00294643 0.00294643 
    Block 4398 cell size :
        i : 1
        j : 0.00248948 0.00248948 0 0 
        k : 0.0027088 0.0027088 0.00294643 0.00294643 
    Block 4399 cell size :
        i : 1
        j : 0.0034517 0.0034517 0 0 
        k : 0.00331083 0.00331083 0.0040396 0.0040396 
    Block 4400 cell size :
        i : 1
        j : 0.00326957 0.00326957 0 0 
        k : 0.00331083 0.00331083 0.00395183 0.00395183 
    Block 4401 cell size :
        i : 1
        j : 0.00248948 0.00248948 0 0 
        k : 0.00302683 0.00302683 0.00313236 0.00313236 
    Block 4402 cell size :
        i : 1
        j : 0.00268968 0.00268968 0 0 
        k : 0.00313236 0.00313236 0.00348443 0.00348443 
    Block 4403 cell size :
        i : 1
        j : 0.00348443 0.00348443 0 0 
        k : 0.00326988 0.00326988 0.00434175 0.00434175 
    Block 4404 cell size :
        i : 1
        j : 0.00354359 0.00354359 0 0 
        k : 0.00434175 0.00434175 0.00440125 0.00440125 
    Block 4405 cell size :
        i : 1
        j : 0.00440125 0.00440125 0 0 
        k : 0.00384407 0.00384407 0.00485634 0.00485634 
    Block 4406 cell size :
        i : 1
        j : 0.00377254 0.00377254 0 0 
        k : 0.00384407 0.00384407 0.00407041 0.00407041 
    Block 4407 cell size :
        i : 1
        j : 0.00326957 0.00326957 0 0 
        k : 0.00363052 0.00363052 0.00390462 0.00390462 
    Block 4408 cell size :
        i : 1
        j : 0.00377254 0.00377254 0 0 
        k : 0.00363052 0.00363052 0.0043076 0.0043076 
    Block 4409 cell size :
        i : 1
        j : 0.00275847 0.00275847 0 0 
        k : 0.00278486 0.00278486 0.0040396 0.0040396 
    Block 4410 cell size :
        i : 1
        j : 0.00226617 0.00226617 0 0 
        k : 0.00278486 0.00278486 0.0035974 0.0035974 
    Block 4411 cell size :
        i : 1
        j : 0.00144226 0.00144226 0 0 
        k : 0.00303883 0.00303883 0.0035974 0.0035974 
    Block 4412 cell size :
        i : 1
        j : 0.00126487 0.00126487 0 0 
        k : 0.00303883 0.00303883 0.0037221 0.0037221 
    Block 4413 cell size :
        i : 1
        j : 0.0022444 0.0022444 0 0 
        k : 0.00309784 0.00309784 0.00339195 0.00339195 
    Block 4414 cell size :
        i : 1
        j : 0.0022444 0.0022444 0 0 
        k : 0.00266159 0.00266159 0.00286429 0.00286429 
    Block 4415 cell size :
        i : 1
        j : 0.00360342 0.00360342 0 0 
        k : 0.00135916 0.00135916 0.00395636 0.00395636 
    Block 4416 cell size :
        i : 1
        j : 0.00360342 0.00360342 0 0 
        k : 0.00122033 0.00122033 0.00372926 0.00372926 
    Block 4417 cell size :
        i : 1
        j : 0.00122033 0.00122033 0 0 
        k : 0.00318529 0.00318529 0.00339195 0.00339195 
    Block 4418 cell size :
        i : 1
        j : 0.00305367 0.00305367 0 0 
        k : 0.00266159 0.00266159 0.0037361 0.0037361 
    Block 4419 cell size :
        i : 1
        j : 0.00225576 0.00225576 0 0 
        k : 0.00302683 0.00302683 0.00305367 0.00305367 
    Block 4420 cell size :
        i : 1
        j : 0.00275847 0.00275847 0 0 
        k : 0.0034224 0.0034224 0.00428829 0.00428829 
    Block 4421 cell size :
        i : 1
        j : 0.00258024 0.00258024 0 0 
        k : 0.0034224 0.0034224 0.00390462 0.00390462 
    Block 4422 cell size :
        i : 1
        j : 0.00225576 0.00225576 0 0 
        k : 0.00352847 0.00352847 0.00355038 0.00355038 
    Block 4423 cell size :
        i : 1
        j : 0.00262668 0.00262668 0 0 
        k : 0.00326988 0.00326988 0.00355038 0.00355038 
    Block 4424 cell size :
        i : 1
        j : 0.00258024 0.00258024 0 0 
        k : 0.00349277 0.00349277 0.00395379 0.00395379 
    Block 4425 cell size :
        i : 1
        j : 0.00262668 0.00262668 0 0 
        k : 0.00349277 0.00349277 0.00407041 0.00407041 
    Block 4426 cell size :
        i : 1
        j : 0.00151955 0.00151955 0 0 
        k : 0.00372706 0.00372706 0.00428829 0.00428829 
    Block 4427 cell size :
        i : 1
        j : 0.00144226 0.00144226 0 0 
        k : 0.00372706 0.00372706 0.00418142 0.00418142 
    Block 4428 cell size :
        i : 1
        j : 0.00250225 0.00250225 0 0 
        k : 0.00318529 0.00318529 0.00476214 0.00476214 
    Block 4429 cell size :
        i : 1
        j : 0.00250225 0.00250225 0 0 
        k : 0.00234796 0.00234796 0.0037361 0.0037361 
    Block 4430 cell size :
        i : 1
        j : 0.00324615 0.00324615 0 0 
        k : 0.00234796 0.00234796 0.00463598 0.00463598 
    Block 4431 cell size :
        i : 1
        j : 0.00324615 0.00324615 0 0 
        k : 0.001414 0.001414 0.00352847 0.00352847 
    Block 4432 cell size :
        i : 1
        j : 0.00151955 0.00151955 0 0 
        k : 0.00376756 0.00376756 0.00430978 0.00430978 
    Block 4433 cell size :
        i : 1
        j : 0.001414 0.001414 0 0 
        k : 0.00376756 0.00376756 0.00395379 0.00395379 
    Block 4434 cell size :
        i : 1
        j : 0.000112 0.000112 0 0 
        k : 0.000112 0.000112 0.000158392 0.000158392 

Writing polyMesh
----------------
Mesh Information
----------------
  boundingBox: (-0.75 -0.75 0) (1.75 0.75 1)
  nPoints: 6652
  nCells: 4435
  nFaces: 16631
  nInternalFaces: 7547
----------------
Patches
----------------
  patch 0 (start: 7547 size: 48) name: top
  patch 1 (start: 7595 size: 48) name: bottom
  patch 2 (start: 7643 size: 29) name: inlet
  patch 3 (start: 7672 size: 29) name: outlet
  patch 4 (start: 7701 size: 60) name: deck
  patch 5 (start: 7761 size: 8870) name: frontAndBack
  patch 6 (start: 16631 size: 0) name: defaultFaces

End

