/*---------------------------------------------------------------------------*\
  =========                 |
  \\      /  F ield         | OpenFOAM: The Open Source CFD Toolbox
   \\    /   O peration     | Website:  https://openfoam.org
    \\  /    A nd           | Version:  8
     \\/     M anipulation  |
\*---------------------------------------------------------------------------*/
Build  : 8-9b73cf21a682
Exec   : pisoFoam
Date   : Oct 11 2020
Time   : 17:29:41
Host   : "bnes"
PID    : 22571
I/O    : uncollated
Case   : /media/sbkim/2266B8F966B8CEB3/git/openfoam_seo/of/org/jbk2/tower_lon_piso
nProcs : 1
sigFpe : Enabling floating point exception trapping (FOAM_SIGFPE).
fileModificationChecking : Monitoring run-time modified files using timeStampMaster (fileModificationSkew 10)
allowSystemOperations : Allowing user-supplied system call operations

// * * * * * * * * * * * * * * * * * * * * * * * * * * * * * * * * * * * * * //
Create time

Create mesh for time = 0

Reading field p

Reading field U

Reading/calculating face flux field phi

Selecting incompressible transport model Newtonian
Selecting turbulence model type RAS
Selecting RAS turbulence model kEpsilon
RAS
{
    model           kEpsilon;
    turbulence      on;
    printCoeffs     on;
    Cmu             0.09;
    C1              1.44;
    C2              1.92;
    C3              0;
    sigmak          1;
    sigmaEps        1.3;
}

No MRF models present

No finite volume options present

Starting time loop

Time = 1e-07

Courant Number mean: 8.00555e-08 max: 3.99393e-06
smoothSolver:  Solving for Ux, Initial residual = 1, Final residual = 2.08967e-08, No Iterations 1
smoothSolver:  Solving for Uy, Initial residual = 1, Final residual = 1.74163e-08, No Iterations 1
GAMG:  Solving for p, Initial residual = 1, Final residual = 0.0684155, No Iterations 7
time step continuity errors : sum local = 1.09541e-08, global = -4.36292e-10, cumulative = -4.36292e-10
GAMG:  Solving for p, Initial residual = 0.0253313, Final residual = 9.96987e-07, No Iterations 34
time step continuity errors : sum local = 2.07933e-11, global = -4.33991e-13, cumulative = -4.36726e-10
smoothSolver:  Solving for epsilon, Initial residual = 8.06108e-07, Final residual = 8.06108e-07, No Iterations 0
smoothSolver:  Solving for k, Initial residual = 1, Final residual = 3.68844e-07, No Iterations 2
ExecutionTime = 0.05 s  ClockTime = 0 s

Time = 2e-07

Courant Number mean: 1.036e-05 max: 0.0148713
smoothSolver:  Solving for Ux, Initial residual = 0.995185, Final residual = 5.56365e-06, No Iterations 1
smoothSolver:  Solving for Uy, Initial residual = 0.331043, Final residual = 5.0258e-06, No Iterations 1
GAMG:  Solving for p, Initial residual = 0.0136255, Final residual = 0.00123834, No Iterations 5
time step continuity errors : sum local = 2.65313e-08, global = 1.6939e-09, cumulative = 1.25717e-09
GAMG:  Solving for p, Initial residual = 0.440789, Final residual = 9.36056e-07, No Iterations 55
time step continuity errors : sum local = 1.08038e-12, global = 2.09186e-14, cumulative = 1.25719e-09
smoothSolver:  Solving for epsilon, Initial residual = 4.56692e-07, Final residual = 4.56692e-07, No Iterations 0
smoothSolver:  Solving for k, Initial residual = 0.000805031, Final residual = 2.41383e-07, No Iterations 1
ExecutionTime = 0.07 s  ClockTime = 0 s

Time = 3e-07

Courant Number mean: 1.03652e-05 max: 0.0142728
smoothSolver:  Solving for Ux, Initial residual = 0.113634, Final residual = 7.7222e-07, No Iterations 1
smoothSolver:  Solving for Uy, Initial residual = 0.175406, Final residual = 1.39915e-06, No Iterations 1
GAMG:  Solving for p, Initial residual = 0.349676, Final residual = 0.0127354, No Iterations 2
time step continuity errors : sum local = 3.5397e-09, global = 2.0455e-10, cumulative = 1.46174e-09
GAMG:  Solving for p, Initial residual = 0.0860679, Final residual = 9.18447e-07, No Iterations 55
time step continuity errors : sum local = 1.81929e-13, global = 2.40754e-15, cumulative = 1.46174e-09
smoothSolver:  Solving for epsilon, Initial residual = 4.4729e-07, Final residual = 4.4729e-07, No Iterations 0
smoothSolver:  Solving for k, Initial residual = 0.000430539, Final residual = 1.35009e-07, No Iterations 1
ExecutionTime = 0.09 s  ClockTime = 0 s

Time = 4e-07

Courant Number mean: 1.0366e-05 max: 0.0138291
smoothSolver:  Solving for Ux, Initial residual = 0.0342439, Final residual = 1.44344e-07, No Iterations 1
smoothSolver:  Solving for Uy, Initial residual = 0.0669137, Final residual = 4.97933e-07, No Iterations 1
GAMG:  Solving for p, Initial residual = 0.213669, Final residual = 0.0176477, No Iterations 1
time step continuity errors : sum local = 2.21117e-09, global = 3.19221e-12, cumulative = 1.46494e-09
GAMG:  Solving for p, Initial residual = 0.0403067, Final residual = 9.74299e-07, No Iterations 53
time step continuity errors : sum local = 1.03877e-13, global = 1.39066e-15, cumulative = 1.46494e-09
smoothSolver:  Solving for epsilon, Initial residual = 4.44173e-07, Final residual = 4.44173e-07, No Iterations 0
smoothSolver:  Solving for k, Initial residual = 0.000286496, Final residual = 1.07546e-07, No Iterations 1
ExecutionTime = 0.1 s  ClockTime = 0 s

Time = 5e-07

Courant Number mean: 1.03667e-05 max: 0.0133147
smoothSolver:  Solving for Ux, Initial residual = 0.024334, Final residual = 8.73796e-08, No Iterations 1
smoothSolver:  Solving for Uy, Initial residual = 0.0387148, Final residual = 2.87846e-07, No Iterations 1
GAMG:  Solving for p, Initial residual = 0.137482, Final residual = 0.0111539, No Iterations 1
time step continuity errors : sum local = 1.0556e-09, global = 1.75848e-12, cumulative = 1.4667e-09
GAMG:  Solving for p, Initial residual = 0.0175588, Final residual = 9.87822e-07, No Iterations 43
time step continuity errors : sum local = 8.30586e-14, global = 1.22844e-15, cumulative = 1.4667e-09
smoothSolver:  Solving for epsilon, Initial residual = 4.43464e-07, Final residual = 4.43464e-07, No Iterations 0
smoothSolver:  Solving for k, Initial residual = 0.000209063, Final residual = 1.01996e-07, No Iterations 1
ExecutionTime = 0.12 s  ClockTime = 0 s

Time = 6e-07

Courant Number mean: 1.03673e-05 max: 0.0129554
smoothSolver:  Solving for Ux, Initial residual = 0.0196052, Final residual = 6.88494e-08, No Iterations 1
smoothSolver:  Solving for Uy, Initial residual = 0.0278275, Final residual = 2.14626e-07, No Iterations 1
GAMG:  Solving for p, Initial residual = 0.101729, Final residual = 0.00809599, No Iterations 1
time step continuity errors : sum local = 6.21334e-10, global = 1.17717e-12, cumulative = 1.46787e-09
GAMG:  Solving for p, Initial residual = 0.0108603, Final residual = 9.2051e-07, No Iterations 37
time step continuity errors : sum local = 6.45084e-14, global = 1.01681e-15, cumulative = 1.46787e-09
smoothSolver:  Solving for epsilon, Initial residual = 4.43913e-07, Final residual = 4.43913e-07, No Iterations 0
smoothSolver:  Solving for k, Initial residual = 0.000160516, Final residual = 1.01995e-07, No Iterations 1
ExecutionTime = 0.13 s  ClockTime = 0 s

Time = 7e-07

Courant Number mean: 1.03678e-05 max: 0.0126421
smoothSolver:  Solving for Ux, Initial residual = 0.0163202, Final residual = 5.83859e-08, No Iterations 1
smoothSolver:  Solving for Uy, Initial residual = 0.0215814, Final residual = 1.71817e-07, No Iterations 1
GAMG:  Solving for p, Initial residual = 0.0846938, Final residual = 0.00671612, No Iterations 1
time step continuity errors : sum local = 4.37703e-10, global = 8.49275e-13, cumulative = 1.46872e-09
GAMG:  Solving for p, Initial residual = 0.00845943, Final residual = 9.69577e-07, No Iterations 35
time step continuity errors : sum local = 5.85931e-14, global = 1.18708e-15, cumulative = 1.46872e-09
smoothSolver:  Solving for epsilon, Initial residual = 4.45193e-07, Final residual = 4.45193e-07, No Iterations 0
smoothSolver:  Solving for k, Initial residual = 0.000128812, Final residual = 9.37121e-08, No Iterations 1
ExecutionTime = 0.15 s  ClockTime = 0 s

Time = 8e-07

Courant Number mean: 1.03683e-05 max: 0.0123162
smoothSolver:  Solving for Ux, Initial residual = 0.0138954, Final residual = 5.08996e-08, No Iterations 1
smoothSolver:  Solving for Uy, Initial residual = 0.017459, Final residual = 1.44717e-07, No Iterations 1
GAMG:  Solving for p, Initial residual = 0.073702, Final residual = 0.00590063, No Iterations 1
time step continuity errors : sum local = 3.34419e-10, global = 5.81235e-13, cumulative = 1.46931e-09
GAMG:  Solving for p, Initial residual = 0.00742355, Final residual = 9.0976e-07, No Iterations 34
time step continuity errors : sum local = 4.82453e-14, global = 9.69175e-16, cumulative = 1.46931e-09
smoothSolver:  Solving for epsilon, Initial residual = 4.46778e-07, Final residual = 4.46778e-07, No Iterations 0
smoothSolver:  Solving for k, Initial residual = 0.000108353, Final residual = 7.09235e-08, No Iterations 1
ExecutionTime = 0.16 s  ClockTime = 0 s

Time = 9e-07

Courant Number mean: 1.03687e-05 max: 0.0119939
smoothSolver:  Solving for Ux, Initial residual = 0.0119959, Final residual = 4.51106e-08, No Iterations 1
smoothSolver:  Solving for Uy, Initial residual = 0.0144012, Final residual = 1.2408e-07, No Iterations 1
GAMG:  Solving for p, Initial residual = 0.0639689, Final residual = 0.00511153, No Iterations 1
time step continuity errors : sum local = 2.56431e-10, global = 5.91789e-13, cumulative = 1.4699e-09
GAMG:  Solving for p, Initial residual = 0.00628689, Final residual = 9.29987e-07, No Iterations 33
time step continuity errors : sum local = 4.40619e-14, global = -9.32962e-16, cumulative = 1.4699e-09
smoothSolver:  Solving for epsilon, Initial residual = 4.48038e-07, Final residual = 4.48038e-07, No Iterations 0
smoothSolver:  Solving for k, Initial residual = 9.53813e-05, Final residual = 4.6545e-08, No Iterations 1
ExecutionTime = 0.17 s  ClockTime = 0 s

Time = 1e-06

Courant Number mean: 1.03691e-05 max: 0.011718
smoothSolver:  Solving for Ux, Initial residual = 0.0105448, Final residual = 4.03804e-08, No Iterations 1
smoothSolver:  Solving for Uy, Initial residual = 0.0121918, Final residual = 1.0811e-07, No Iterations 1
GAMG:  Solving for p, Initial residual = 0.05719, Final residual = 0.00454814, No Iterations 1
time step continuity errors : sum local = 2.0482e-10, global = 4.671e-13, cumulative = 1.47037e-09
GAMG:  Solving for p, Initial residual = 0.00564641, Final residual = 9.23959e-07, No Iterations 33
time step continuity errors : sum local = 3.95364e-14, global = 4.53485e-16, cumulative = 1.47037e-09
smoothSolver:  Solving for epsilon, Initial residual = 4.48824e-07, Final residual = 4.48824e-07, No Iterations 0
smoothSolver:  Solving for k, Initial residual = 8.69119e-05, Final residual = 4.04179e-08, No Iterations 1
ExecutionTime = 0.19 s  ClockTime = 0 s

Time = 1.1e-06

Courant Number mean: 1.03694e-05 max: 0.0115009
smoothSolver:  Solving for Ux, Initial residual = 0.0093714, Final residual = 3.64751e-08, No Iterations 1
smoothSolver:  Solving for Uy, Initial residual = 0.0104048, Final residual = 9.53306e-08, No Iterations 1
GAMG:  Solving for p, Initial residual = 0.0509258, Final residual = 0.00420027, No Iterations 1
time step continuity errors : sum local = 1.71749e-10, global = 2.83892e-13, cumulative = 1.47065e-09
GAMG:  Solving for p, Initial residual = 0.00511681, Final residual = 9.27766e-07, No Iterations 32
time step continuity errors : sum local = 3.62349e-14, global = 6.31117e-16, cumulative = 1.47065e-09
smoothSolver:  Solving for epsilon, Initial residual = 4.49406e-07, Final residual = 4.49406e-07, No Iterations 0
smoothSolver:  Solving for k, Initial residual = 8.07521e-05, Final residual = 4.21612e-08, No Iterations 1
ExecutionTime = 0.2 s  ClockTime = 0 s

Time = 1.2e-06

Courant Number mean: 1.03697e-05 max: 0.0113372
smoothSolver:  Solving for Ux, Initial residual = 0.00840362, Final residual = 3.3142e-08, No Iterations 1
smoothSolver:  Solving for Uy, Initial residual = 0.00909978, Final residual = 8.53802e-08, No Iterations 1
GAMG:  Solving for p, Initial residual = 0.045712, Final residual = 0.00370231, No Iterations 1
time step continuity errors : sum local = 1.388e-10, global = 2.66219e-13, cumulative = 1.47092e-09
GAMG:  Solving for p, Initial residual = 0.00455298, Final residual = 9.77269e-07, No Iterations 31
time step continuity errors : sum local = 3.51629e-14, global = -7.61116e-16, cumulative = 1.47092e-09
smoothSolver:  Solving for epsilon, Initial residual = 4.50025e-07, Final residual = 4.50025e-07, No Iterations 0
smoothSolver:  Solving for k, Initial residual = 7.58334e-05, Final residual = 3.89532e-08, No Iterations 1
ExecutionTime = 0.22 s  ClockTime = 0 s

Time = 1.3e-06

Courant Number mean: 1.03699e-05 max: 0.0112157
smoothSolver:  Solving for Ux, Initial residual = 0.00761361, Final residual = 3.0534e-08, No Iterations 1
smoothSolver:  Solving for Uy, Initial residual = 0.00802436, Final residual = 7.73831e-08, No Iterations 1
GAMG:  Solving for p, Initial residual = 0.0416358, Final residual = 0.00338319, No Iterations 1
time step continuity errors : sum local = 1.17185e-10, global = 1.90491e-13, cumulative = 1.47111e-09
GAMG:  Solving for p, Initial residual = 0.00413824, Final residual = 9.29666e-07, No Iterations 31
time step continuity errors : sum local = 3.10089e-14, global = -6.68357e-16, cumulative = 1.47111e-09
smoothSolver:  Solving for epsilon, Initial residual = 4.50813e-07, Final residual = 4.50813e-07, No Iterations 0
smoothSolver:  Solving for k, Initial residual = 7.16908e-05, Final residual = 3.4468e-08, No Iterations 1
ExecutionTime = 0.23 s  ClockTime = 0 s

Time = 1.4e-06

Courant Number mean: 1.03702e-05 max: 0.0111215
smoothSolver:  Solving for Ux, Initial residual = 0.00694498, Final residual = 2.8275e-08, No Iterations 1
smoothSolver:  Solving for Uy, Initial residual = 0.00714958, Final residual = 7.05299e-08, No Iterations 1
GAMG:  Solving for p, Initial residual = 0.0381274, Final residual = 0.0030711, No Iterations 1
time step continuity errors : sum local = 9.89139e-11, global = 1.58516e-13, cumulative = 1.47126e-09
GAMG:  Solving for p, Initial residual = 0.00376888, Final residual = 9.78732e-07, No Iterations 30
time step continuity errors : sum local = 3.04521e-14, global = -6.72293e-16, cumulative = 1.47126e-09
smoothSolver:  Solving for epsilon, Initial residual = 4.51798e-07, Final residual = 4.51798e-07, No Iterations 0
smoothSolver:  Solving for k, Initial residual = 6.81198e-05, Final residual = 3.03979e-08, No Iterations 1
ExecutionTime = 0.25 s  ClockTime = 0 s

Time = 1.5e-06

Courant Number mean: 1.03704e-05 max: 0.0110478
smoothSolver:  Solving for Ux, Initial residual = 0.00638172, Final residual = 2.63584e-08, No Iterations 1
smoothSolver:  Solving for Uy, Initial residual = 0.00643561, Final residual = 6.49991e-08, No Iterations 1
GAMG:  Solving for p, Initial residual = 0.0352259, Final residual = 0.00284011, No Iterations 1
time step continuity errors : sum local = 8.55157e-11, global = 1.03657e-13, cumulative = 1.47137e-09
GAMG:  Solving for p, Initial residual = 0.00348555, Final residual = 9.45994e-07, No Iterations 30
time step continuity errors : sum local = 2.75835e-14, global = -6.09855e-16, cumulative = 1.47137e-09
smoothSolver:  Solving for epsilon, Initial residual = 4.52967e-07, Final residual = 4.52967e-07, No Iterations 0
smoothSolver:  Solving for k, Initial residual = 6.50117e-05, Final residual = 2.73531e-08, No Iterations 1
ExecutionTime = 0.26 s  ClockTime = 0 s

Time = 1.6e-06

Courant Number mean: 1.03707e-05 max: 0.0109883
smoothSolver:  Solving for Ux, Initial residual = 0.00590085, Final residual = 2.47193e-08, No Iterations 1
smoothSolver:  Solving for Uy, Initial residual = 0.0058187, Final residual = 6.01741e-08, No Iterations 1
GAMG:  Solving for p, Initial residual = 0.0324515, Final residual = 0.00257898, No Iterations 1
time step continuity errors : sum local = 7.29238e-11, global = 8.17183e-14, cumulative = 1.47145e-09
GAMG:  Solving for p, Initial residual = 0.00317419, Final residual = 9.17479e-07, No Iterations 30
time step continuity errors : sum local = 2.51779e-14, global = -5.63144e-16, cumulative = 1.47145e-09
smoothSolver:  Solving for epsilon, Initial residual = 4.54309e-07, Final residual = 4.54309e-07, No Iterations 0
smoothSolver:  Solving for k, Initial residual = 6.23075e-05, Final residual = 2.56142e-08, No Iterations 1
ExecutionTime = 0.27 s  ClockTime = 0 s

Time = 1.7e-06

Courant Number mean: 1.03708e-05 max: 0.0109393
smoothSolver:  Solving for Ux, Initial residual = 0.00548843, Final residual = 2.32847e-08, No Iterations 1
smoothSolver:  Solving for Uy, Initial residual = 0.00532322, Final residual = 5.61174e-08, No Iterations 1
GAMG:  Solving for p, Initial residual = 0.0304597, Final residual = 0.00243024, No Iterations 1
time step continuity errors : sum local = 6.48003e-11, global = 7.05368e-14, cumulative = 1.47152e-09
GAMG:  Solving for p, Initial residual = 0.0029885, Final residual = 8.81626e-07, No Iterations 30
time step continuity errors : sum local = 2.28604e-14, global = -5.1448e-16, cumulative = 1.47152e-09
smoothSolver:  Solving for epsilon, Initial residual = 4.55817e-07, Final residual = 4.55817e-07, No Iterations 0
smoothSolver:  Solving for k, Initial residual = 5.99856e-05, Final residual = 2.52375e-08, No Iterations 1
ExecutionTime = 0.28 s  ClockTime = 0 s

Time = 1.8e-06

Courant Number mean: 1.0371e-05 max: 0.0108978
smoothSolver:  Solving for Ux, Initial residual = 0.00512698, Final residual = 2.20097e-08, No Iterations 1
smoothSolver:  Solving for Uy, Initial residual = 0.00488872, Final residual = 5.25909e-08, No Iterations 1
GAMG:  Solving for p, Initial residual = 0.0282182, Final residual = 0.00221419, No Iterations 1
time step continuity errors : sum local = 5.58936e-11, global = 5.36752e-14, cumulative = 1.47157e-09
GAMG:  Solving for p, Initial residual = 0.00273708, Final residual = 9.93266e-07, No Iterations 29
time step continuity errors : sum local = 2.44302e-14, global = -5.52518e-16, cumulative = 1.47157e-09
smoothSolver:  Solving for epsilon, Initial residual = 4.57499e-07, Final residual = 4.57499e-07, No Iterations 0
smoothSolver:  Solving for k, Initial residual = 5.807e-05, Final residual = 2.70018e-08, No Iterations 1
ExecutionTime = 0.29 s  ClockTime = 0 s

Time = 1.9e-06

Courant Number mean: 1.03712e-05 max: 0.0108623
smoothSolver:  Solving for Ux, Initial residual = 0.00481478, Final residual = 2.09067e-08, No Iterations 1
smoothSolver:  Solving for Uy, Initial residual = 0.00452019, Final residual = 4.94708e-08, No Iterations 1
GAMG:  Solving for p, Initial residual = 0.0267397, Final residual = 0.00209703, No Iterations 1
time step continuity errors : sum local = 5.0283e-11, global = 3.81029e-14, cumulative = 1.47161e-09
GAMG:  Solving for p, Initial residual = 0.00258752, Final residual = 9.53491e-07, No Iterations 29
time step continuity errors : sum local = 2.23071e-14, global = -5.02263e-16, cumulative = 1.47161e-09
smoothSolver:  Solving for epsilon, Initial residual = 4.59378e-07, Final residual = 4.59378e-07, No Iterations 0
smoothSolver:  Solving for k, Initial residual = 5.66191e-05, Final residual = 3.12884e-08, No Iterations 1
ExecutionTime = 0.31 s  ClockTime = 0 s

Time = 2e-06

Courant Number mean: 1.03714e-05 max: 0.010831
smoothSolver:  Solving for Ux, Initial residual = 0.00453447, Final residual = 1.99369e-08, No Iterations 1
smoothSolver:  Solving for Uy, Initial residual = 0.0041983, Final residual = 4.67095e-08, No Iterations 1
GAMG:  Solving for p, Initial residual = 0.0251583, Final residual = 0.00194303, No Iterations 1
time step continuity errors : sum local = 4.43872e-11, global = 3.02335e-14, cumulative = 1.47164e-09
GAMG:  Solving for p, Initial residual = 0.00241077, Final residual = 9.2508e-07, No Iterations 29
time step continuity errors : sum local = 2.06533e-14, global = -4.69456e-16, cumulative = 1.47164e-09
smoothSolver:  Solving for epsilon, Initial residual = 4.61502e-07, Final residual = 4.61502e-07, No Iterations 0
smoothSolver:  Solving for k, Initial residual = 5.58282e-05, Final residual = 4.0049e-08, No Iterations 1
ExecutionTime = 0.32 s  ClockTime = 0 s

Time = 2.1e-06

Courant Number mean: 1.03715e-05 max: 0.0108033
smoothSolver:  Solving for Ux, Initial residual = 0.00428568, Final residual = 1.91606e-08, No Iterations 1
smoothSolver:  Solving for Uy, Initial residual = 0.00391978, Final residual = 4.42643e-08, No Iterations 1
GAMG:  Solving for p, Initial residual = 0.0238586, Final residual = 0.00182933, No Iterations 1
time step continuity errors : sum local = 3.99255e-11, global = 1.96273e-14, cumulative = 1.47166e-09
GAMG:  Solving for p, Initial residual = 0.00227785, Final residual = 8.92977e-07, No Iterations 29
time step continuity errors : sum local = 1.90685e-14, global = -4.31678e-16, cumulative = 1.47166e-09
smoothSolver:  Solving for epsilon, Initial residual = 4.63958e-07, Final residual = 4.63958e-07, No Iterations 0
smoothSolver:  Solving for k, Initial residual = 5.61488e-05, Final residual = 6.10316e-08, No Iterations 1
ExecutionTime = 0.33 s  ClockTime = 0 s

Time = 2.2e-06

Courant Number mean: 1.03716e-05 max: 0.0107783
smoothSolver:  Solving for Ux, Initial residual = 0.0040611, Final residual = 1.88758e-08, No Iterations 1
smoothSolver:  Solving for Uy, Initial residual = 0.00367179, Final residual = 4.22966e-08, No Iterations 1
GAMG:  Solving for p, Initial residual = 0.0228554, Final residual = 0.00174388, No Iterations 1
time step continuity errors : sum local = 3.64438e-11, global = 1.91491e-14, cumulative = 1.47168e-09
GAMG:  Solving for p, Initial residual = 0.00219528, Final residual = 9.90005e-07, No Iterations 28
time step continuity errors : sum local = 2.02647e-14, global = -4.62903e-16, cumulative = 1.47168e-09
smoothSolver:  Solving for epsilon, Initial residual = 4.66894e-07, Final residual = 4.66894e-07, No Iterations 0
smoothSolver:  Solving for k, Initial residual = 5.86109e-05, Final residual = 1.2372e-07, No Iterations 1
ExecutionTime = 0.34 s  ClockTime = 0 s

Time = 2.3e-06

Courant Number mean: 1.03717e-05 max: 0.0107553
smoothSolver:  Solving for Ux, Initial residual = 0.00385785, Final residual = 2.04138e-08, No Iterations 1
smoothSolver:  Solving for Uy, Initial residual = 0.00345031, Final residual = 4.15483e-08, No Iterations 1
GAMG:  Solving for p, Initial residual = 0.0219579, Final residual = 0.00169221, No Iterations 1
time step continuity errors : sum local = 3.39375e-11, global = 1.43068e-14, cumulative = 1.47169e-09
GAMG:  Solving for p, Initial residual = 0.00218389, Final residual = 9.16904e-07, No Iterations 28
time step continuity errors : sum local = 1.80304e-14, global = -4.2202e-16, cumulative = 1.47169e-09
smoothSolver:  Solving for epsilon, Initial residual = 4.70533e-07, Final residual = 4.70533e-07, No Iterations 0
smoothSolver:  Solving for k, Initial residual = 6.54801e-05, Final residual = 3.71865e-07, No Iterations 1
ExecutionTime = 0.35 s  ClockTime = 0 s

Time = 2.4e-06

Courant Number mean: 1.03719e-05 max: 0.0107332
smoothSolver:  Solving for Ux, Initial residual = 0.003674, Final residual = 3.04198e-08, No Iterations 1
smoothSolver:  Solving for Uy, Initial residual = 0.00325149, Final residual = 4.75698e-08, No Iterations 1
GAMG:  Solving for p, Initial residual = 0.0216096, Final residual = 0.00170327, No Iterations 1
time step continuity errors : sum local = 3.28611e-11, global = 5.59085e-15, cumulative = 1.4717e-09
GAMG:  Solving for p, Initial residual = 0.00233647, Final residual = 9.95081e-07, No Iterations 27
time step continuity errors : sum local = 1.88495e-14, global = -4.29423e-16, cumulative = 1.47169e-09
smoothSolver:  Solving for epsilon, Initial residual = 4.74965e-07, Final residual = 4.74965e-07, No Iterations 0
smoothSolver:  Solving for k, Initial residual = 8.01382e-05, Final residual = 1.65112e-06, No Iterations 1
ExecutionTime = 0.36 s  ClockTime = 0 s

Time = 2.5e-06

Courant Number mean: 1.0372e-05 max: 0.0107103
smoothSolver:  Solving for Ux, Initial residual = 0.00350599, Final residual = 7.35527e-08, No Iterations 1
smoothSolver:  Solving for Uy, Initial residual = 0.00307454, Final residual = 9.00916e-08, No Iterations 1
GAMG:  Solving for p, Initial residual = 0.0218272, Final residual = 0.00182015, No Iterations 1
time step continuity errors : sum local = 3.38886e-11, global = 4.17564e-15, cumulative = 1.4717e-09
GAMG:  Solving for p, Initial residual = 0.00280503, Final residual = 8.99153e-07, No Iterations 28
time step continuity errors : sum local = 1.64705e-14, global = -3.5247e-16, cumulative = 1.4717e-09
smoothSolver:  Solving for epsilon, Initial residual = 4.79002e-07, Final residual = 4.79002e-07, No Iterations 0
smoothSolver:  Solving for k, Initial residual = 9.54496e-05, Final residual = 7.55154e-06, No Iterations 1
ExecutionTime = 0.38 s  ClockTime = 0 s

Time = 2.6e-06

Courant Number mean: 1.0372e-05 max: 0.0106836
smoothSolver:  Solving for Ux, Initial residual = 0.00335235, Final residual = 1.45459e-07, No Iterations 1
smoothSolver:  Solving for Uy, Initial residual = 0.00292, Final residual = 1.4157e-07, No Iterations 1
GAMG:  Solving for p, Initial residual = 0.0212992, Final residual = 0.0017439, No Iterations 1
time step continuity errors : sum local = 3.14195e-11, global = -1.08523e-16, cumulative = 1.4717e-09
GAMG:  Solving for p, Initial residual = 0.00275008, Final residual = 9.03932e-07, No Iterations 28
time step continuity errors : sum local = 1.60384e-14, global = -3.53302e-16, cumulative = 1.4717e-09
smoothSolver:  Solving for epsilon, Initial residual = 4.8132e-07, Final residual = 4.8132e-07, No Iterations 0
smoothSolver:  Solving for k, Initial residual = 8.39004e-05, Final residual = 2.695e-06, No Iterations 2
ExecutionTime = 0.38 s  ClockTime = 1 s

Time = 2.7e-06

Courant Number mean: 1.03721e-05 max: 0.0106537
smoothSolver:  Solving for Ux, Initial residual = 0.00321143, Final residual = 1.81951e-07, No Iterations 1
smoothSolver:  Solving for Uy, Initial residual = 0.00277986, Final residual = 2.05531e-07, No Iterations 1
GAMG:  Solving for p, Initial residual = 0.0202348, Final residual = 0.00167239, No Iterations 1
time step continuity errors : sum local = 2.91616e-11, global = 1.80532e-15, cumulative = 1.4717e-09
GAMG:  Solving for p, Initial residual = 0.00244462, Final residual = 9.52222e-07, No Iterations 26
time step continuity errors : sum local = 1.63415e-14, global = -3.666e-16, cumulative = 1.4717e-09
smoothSolver:  Solving for epsilon, Initial residual = 4.85106e-07, Final residual = 4.85106e-07, No Iterations 0
smoothSolver:  Solving for k, Initial residual = 0.000104159, Final residual = 2.4875e-06, No Iterations 2
ExecutionTime = 0.39 s  ClockTime = 1 s

Time = 2.8e-06

Courant Number mean: 1.03722e-05 max: 0.0106265
smoothSolver:  Solving for Ux, Initial residual = 0.00308183, Final residual = 2.34002e-07, No Iterations 1
smoothSolver:  Solving for Uy, Initial residual = 0.00265271, Final residual = 3.15893e-07, No Iterations 1
GAMG:  Solving for p, Initial residual = 0.0208967, Final residual = 0.00185163, No Iterations 1
time step continuity errors : sum local = 3.12601e-11, global = 3.10809e-15, cumulative = 1.4717e-09
GAMG:  Solving for p, Initial residual = 0.00301419, Final residual = 8.81421e-07, No Iterations 28
time step continuity errors : sum local = 1.46527e-14, global = -2.91175e-16, cumulative = 1.4717e-09
smoothSolver:  Solving for epsilon, Initial residual = 4.90384e-07, Final residual = 4.90384e-07, No Iterations 0
smoothSolver:  Solving for k, Initial residual = 9.19375e-05, Final residual = 4.97236e-06, No Iterations 1
ExecutionTime = 0.41 s  ClockTime = 1 s

Time = 2.9e-06

Courant Number mean: 1.03723e-05 max: 0.0106049
smoothSolver:  Solving for Ux, Initial residual = 0.00296238, Final residual = 3.88757e-07, No Iterations 1
smoothSolver:  Solving for Uy, Initial residual = 0.00253532, Final residual = 3.52362e-07, No Iterations 1
GAMG:  Solving for p, Initial residual = 0.021531, Final residual = 0.00193316, No Iterations 1
time step continuity errors : sum local = 3.16627e-11, global = -3.04407e-15, cumulative = 1.4717e-09
GAMG:  Solving for p, Initial residual = 0.00308782, Final residual = 8.80959e-07, No Iterations 28
time step continuity errors : sum local = 1.42316e-14, global = -2.86037e-16, cumulative = 1.4717e-09
smoothSolver:  Solving for epsilon, Initial residual = 4.94754e-07, Final residual = 4.94754e-07, No Iterations 0
smoothSolver:  Solving for k, Initial residual = 8.73021e-05, Final residual = 6.67754e-06, No Iterations 1
ExecutionTime = 0.42 s  ClockTime = 1 s

Time = 3e-06

Courant Number mean: 1.03723e-05 max: 0.0105865
smoothSolver:  Solving for Ux, Initial residual = 0.00285147, Final residual = 5.07823e-07, No Iterations 1
smoothSolver:  Solving for Uy, Initial residual = 0.00243352, Final residual = 4.3622e-07, No Iterations 1
GAMG:  Solving for p, Initial residual = 0.0203393, Final residual = 0.00176055, No Iterations 1
time step continuity errors : sum local = 2.80297e-11, global = -2.08969e-15, cumulative = 1.4717e-09
GAMG:  Solving for p, Initial residual = 0.00252139, Final residual = 8.7258e-07, No Iterations 27
time step continuity errors : sum local = 1.37124e-14, global = -2.93609e-16, cumulative = 1.4717e-09
smoothSolver:  Solving for epsilon, Initial residual = 4.98259e-07, Final residual = 4.98259e-07, No Iterations 0
smoothSolver:  Solving for k, Initial residual = 8.56637e-05, Final residual = 8.30798e-06, No Iterations 1
ExecutionTime = 0.43 s  ClockTime = 1 s

Time = 3.1e-06

Courant Number mean: 1.03724e-05 max: 0.0105688
smoothSolver:  Solving for Ux, Initial residual = 0.00274861, Final residual = 4.00388e-07, No Iterations 1
smoothSolver:  Solving for Uy, Initial residual = 0.00233691, Final residual = 6.56786e-07, No Iterations 1
GAMG:  Solving for p, Initial residual = 0.0197715, Final residual = 0.00170749, No Iterations 1
time step continuity errors : sum local = 2.64128e-11, global = -4.3109e-15, cumulative = 1.47169e-09
GAMG:  Solving for p, Initial residual = 0.00261596, Final residual = 9.00303e-07, No Iterations 27
time step continuity errors : sum local = 1.3728e-14, global = -2.63141e-16, cumulative = 1.47169e-09
smoothSolver:  Solving for epsilon, Initial residual = 5.03711e-07, Final residual = 5.03711e-07, No Iterations 0
smoothSolver:  Solving for k, Initial residual = 7.42364e-05, Final residual = 2.2882e-06, No Iterations 2
ExecutionTime = 0.44 s  ClockTime = 1 s

Time = 3.2e-06

Courant Number mean: 1.03725e-05 max: 0.0105512
smoothSolver:  Solving for Ux, Initial residual = 0.00265368, Final residual = 3.34922e-07, No Iterations 1
smoothSolver:  Solving for Uy, Initial residual = 0.00224545, Final residual = 8.47991e-07, No Iterations 1
GAMG:  Solving for p, Initial residual = 0.0197082, Final residual = 0.0017201, No Iterations 1
time step continuity errors : sum local = 2.58355e-11, global = -3.96081e-15, cumulative = 1.47169e-09
GAMG:  Solving for p, Initial residual = 0.00249789, Final residual = 9.62736e-07, No Iterations 26
time step continuity errors : sum local = 1.42599e-14, global = -2.65311e-16, cumulative = 1.47169e-09
smoothSolver:  Solving for epsilon, Initial residual = 5.11017e-07, Final residual = 5.11017e-07, No Iterations 0
smoothSolver:  Solving for k, Initial residual = 7.72197e-05, Final residual = 3.85023e-06, No Iterations 2
ExecutionTime = 0.45 s  ClockTime = 1 s

Time = 3.3e-06

Courant Number mean: 1.03725e-05 max: 0.0105339
smoothSolver:  Solving for Ux, Initial residual = 0.00256544, Final residual = 4.57652e-07, No Iterations 1
smoothSolver:  Solving for Uy, Initial residual = 0.00215936, Final residual = 1.25123e-06, No Iterations 1
GAMG:  Solving for p, Initial residual = 0.0199998, Final residual = 0.00179767, No Iterations 1
time step continuity errors : sum local = 2.62672e-11, global = -4.5735e-15, cumulative = 1.47168e-09
GAMG:  Solving for p, Initial residual = 0.00266868, Final residual = 8.99536e-07, No Iterations 26
time step continuity errors : sum local = 1.298e-14, global = -2.44701e-16, cumulative = 1.47168e-09
smoothSolver:  Solving for epsilon, Initial residual = 5.20115e-07, Final residual = 5.20115e-07, No Iterations 0
smoothSolver:  Solving for k, Initial residual = 7.42611e-05, Final residual = 5.91784e-06, No Iterations 2
ExecutionTime = 0.47 s  ClockTime = 1 s

Time = 3.4e-06

Courant Number mean: 1.03726e-05 max: 0.0105167
smoothSolver:  Solving for Ux, Initial residual = 0.0024847, Final residual = 6.48504e-07, No Iterations 1
smoothSolver:  Solving for Uy, Initial residual = 0.0020794, Final residual = 1.8738e-06, No Iterations 1
GAMG:  Solving for p, Initial residual = 0.0209742, Final residual = 0.00198978, No Iterations 1
time step continuity errors : sum local = 2.83471e-11, global = -5.52031e-15, cumulative = 1.47168e-09
GAMG:  Solving for p, Initial residual = 0.00313261, Final residual = 9.20161e-07, No Iterations 26
time step continuity errors : sum local = 1.29626e-14, global = -2.42976e-16, cumulative = 1.47168e-09
smoothSolver:  Solving for epsilon, Initial residual = 5.29076e-07, Final residual = 5.29076e-07, No Iterations 0
smoothSolver:  Solving for k, Initial residual = 7.44319e-05, Final residual = 8.273e-06, No Iterations 2
ExecutionTime = 0.48 s  ClockTime = 1 s

Time = 3.5e-06

Courant Number mean: 1.03727e-05 max: 0.0104994
smoothSolver:  Solving for Ux, Initial residual = 0.00240924, Final residual = 7.90168e-07, No Iterations 1
smoothSolver:  Solving for Uy, Initial residual = 0.00200584, Final residual = 2.66186e-06, No Iterations 1
GAMG:  Solving for p, Initial residual = 0.0207053, Final residual = 0.00191297, No Iterations 1
time step continuity errors : sum local = 2.66144e-11, global = -3.36056e-15, cumulative = 1.47167e-09
GAMG:  Solving for p, Initial residual = 0.00302055, Final residual = 8.83716e-07, No Iterations 26
time step continuity errors : sum local = 1.21638e-14, global = -2.43021e-16, cumulative = 1.47167e-09
smoothSolver:  Solving for epsilon, Initial residual = 5.39922e-07, Final residual = 5.39922e-07, No Iterations 0
smoothSolver:  Solving for k, Initial residual = 8.58536e-05, Final residual = 5.91163e-06, No Iterations 3
ExecutionTime = 0.49 s  ClockTime = 1 s

Time = 3.6e-06

Courant Number mean: 1.03727e-05 max: 0.0104813
smoothSolver:  Solving for Ux, Initial residual = 0.00234058, Final residual = 1.13692e-06, No Iterations 1
smoothSolver:  Solving for Uy, Initial residual = 0.0019362, Final residual = 4.70613e-06, No Iterations 1
GAMG:  Solving for p, Initial residual = 0.0216712, Final residual = 0.00209791, No Iterations 1
time step continuity errors : sum local = 2.85685e-11, global = -3.98409e-15, cumulative = 1.47167e-09
GAMG:  Solving for p, Initial residual = 0.00346602, Final residual = 9.97725e-07, No Iterations 27
time step continuity errors : sum local = 1.3469e-14, global = -2.60818e-16, cumulative = 1.47167e-09
smoothSolver:  Solving for epsilon, Initial residual = 5.54146e-07, Final residual = 5.54146e-07, No Iterations 0
smoothSolver:  Solving for k, Initial residual = 8.5168e-05, Final residual = 9.03357e-06, No Iterations 3
ExecutionTime = 0.5 s  ClockTime = 1 s

Time = 3.7e-06

Courant Number mean: 1.03728e-05 max: 0.0104619
smoothSolver:  Solving for Ux, Initial residual = 0.00227663, Final residual = 1.60826e-06, No Iterations 1
smoothSolver:  Solving for Uy, Initial residual = 0.0018705, Final residual = 6.95062e-06, No Iterations 1
GAMG:  Solving for p, Initial residual = 0.0231801, Final residual = 0.00214083, No Iterations 1
time step continuity errors : sum local = 2.85623e-11, global = -1.55663e-15, cumulative = 1.47167e-09
GAMG:  Solving for p, Initial residual = 0.00405001, Final residual = 8.66899e-07, No Iterations 30
time step continuity errors : sum local = 1.14657e-14, global = -2.19129e-16, cumulative = 1.47167e-09
smoothSolver:  Solving for epsilon, Initial residual = 5.72284e-07, Final residual = 5.72284e-07, No Iterations 0
smoothSolver:  Solving for k, Initial residual = 8.98518e-05, Final residual = 8.73052e-06, No Iterations 4
ExecutionTime = 0.51 s  ClockTime = 1 s

Time = 3.8e-06

Courant Number mean: 1.03728e-05 max: 0.0104404
smoothSolver:  Solving for Ux, Initial residual = 0.0022197, Final residual = 2.28642e-06, No Iterations 1
smoothSolver:  Solving for Uy, Initial residual = 0.00180493, Final residual = 6.04001e-06, No Iterations 2
GAMG:  Solving for p, Initial residual = 0.0230888, Final residual = 0.000762336, No Iterations 2
time step continuity errors : sum local = 9.95687e-12, global = -9.69058e-15, cumulative = 1.47166e-09
GAMG:  Solving for p, Initial residual = 0.00396348, Final residual = 9.32985e-07, No Iterations 31
time step continuity errors : sum local = 1.209e-14, global = -2.48075e-16, cumulative = 1.47166e-09
smoothSolver:  Solving for epsilon, Initial residual = 4.60424e-06, Final residual = 4.60424e-06, No Iterations 0
smoothSolver:  Solving for k, Initial residual = 0.000104023, Final residual = 9.74085e-06, No Iterations 5
ExecutionTime = 0.53 s  ClockTime = 1 s

Time = 3.9e-06

Courant Number mean: 1.03729e-05 max: 0.0104149
smoothSolver:  Solving for Ux, Initial residual = 0.00216958, Final residual = 3.48393e-06, No Iterations 1
smoothSolver:  Solving for Uy, Initial residual = 0.00174126, Final residual = 8.90218e-06, No Iterations 2
GAMG:  Solving for p, Initial residual = 0.0249668, Final residual = 0.00081895, No Iterations 2
time step continuity errors : sum local = 1.04872e-11, global = -9.27557e-15, cumulative = 1.47165e-09
GAMG:  Solving for p, Initial residual = 0.00546157, Final residual = 9.67058e-07, No Iterations 33
time step continuity errors : sum local = 1.23005e-14, global = -2.57578e-16, cumulative = 1.47165e-09
smoothSolver:  Solving for epsilon, Initial residual = 0.000443836, Final residual = 9.13695e-06, No Iterations 13
smoothSolver:  Solving for k, Initial residual = 0.000102742, Final residual = 8.33043e-06, No Iterations 7
ExecutionTime = 0.54 s  ClockTime = 1 s

Time = 4e-06

Courant Number mean: 1.0373e-05 max: 0.0104002
smoothSolver:  Solving for Ux, Initial residual = 0.00212872, Final residual = 1.04884e-06, No Iterations 1
smoothSolver:  Solving for Uy, Initial residual = 0.0016673, Final residual = 4.61332e-06, No Iterations 1
GAMG:  Solving for p, Initial residual = 0.0546257, Final residual = 0.00249019, No Iterations 2
time step continuity errors : sum local = 3.21491e-11, global = -2.06376e-14, cumulative = 1.47163e-09
GAMG:  Solving for p, Initial residual = 0.0124757, Final residual = 8.85134e-07, No Iterations 38
time step continuity errors : sum local = 1.08774e-14, global = 2.4351e-16, cumulative = 1.47163e-09
smoothSolver:  Solving for epsilon, Initial residual = 1.73701e-07, Final residual = 1.73701e-07, No Iterations 0
smoothSolver:  Solving for k, Initial residual = 3.29511e-05, Final residual = 7.21012e-06, No Iterations 2
ExecutionTime = 0.56 s  ClockTime = 1 s

Time = 4.1e-06

Courant Number mean: 1.0373e-05 max: 0.0105269
smoothSolver:  Solving for Ux, Initial residual = 0.00206678, Final residual = 1.0066e-06, No Iterations 1
smoothSolver:  Solving for Uy, Initial residual = 0.00159297, Final residual = 4.25704e-06, No Iterations 1
GAMG:  Solving for p, Initial residual = 0.0209957, Final residual = 0.00198826, No Iterations 1
time step continuity errors : sum local = 2.39402e-11, global = -5.43357e-15, cumulative = 1.47162e-09
GAMG:  Solving for p, Initial residual = 0.00317513, Final residual = 8.65482e-07, No Iterations 32
time step continuity errors : sum local = 1.03069e-14, global = -2.62504e-16, cumulative = 1.47162e-09
smoothSolver:  Solving for epsilon, Initial residual = 5.78815e-07, Final residual = 5.78815e-07, No Iterations 0
smoothSolver:  Solving for k, Initial residual = 3.04674e-05, Final residual = 7.16558e-06, No Iterations 2
ExecutionTime = 0.57 s  ClockTime = 1 s

Time = 4.2e-06

Courant Number mean: 1.03731e-05 max: 0.010662
smoothSolver:  Solving for Ux, Initial residual = 0.00201763, Final residual = 8.79156e-07, No Iterations 1
smoothSolver:  Solving for Uy, Initial residual = 0.00153936, Final residual = 2.98733e-06, No Iterations 1
GAMG:  Solving for p, Initial residual = 0.0174699, Final residual = 0.00151973, No Iterations 1
time step continuity errors : sum local = 1.79042e-11, global = -6.66959e-15, cumulative = 1.47162e-09
GAMG:  Solving for p, Initial residual = 0.00253707, Final residual = 9.1785e-07, No Iterations 32
time step continuity errors : sum local = 1.0721e-14, global = -2.68322e-16, cumulative = 1.47162e-09
smoothSolver:  Solving for epsilon, Initial residual = 2.37264e-05, Final residual = 8.68507e-06, No Iterations 3
smoothSolver:  Solving for k, Initial residual = 2.55673e-05, Final residual = 6.3737e-06, No Iterations 2
ExecutionTime = 0.58 s  ClockTime = 1 s

Time = 4.3e-06

Courant Number mean: 1.03731e-05 max: 0.0107703
smoothSolver:  Solving for Ux, Initial residual = 0.00197417, Final residual = 9.16655e-07, No Iterations 1
smoothSolver:  Solving for Uy, Initial residual = 0.00148922, Final residual = 2.59394e-06, No Iterations 1
GAMG:  Solving for p, Initial residual = 0.0223845, Final residual = 0.000815275, No Iterations 2
time step continuity errors : sum local = 9.46602e-12, global = -1.75673e-14, cumulative = 1.4716e-09
GAMG:  Solving for p, Initial residual = 0.00332346, Final residual = 8.9649e-07, No Iterations 35
time step continuity errors : sum local = 1.02298e-14, global = -2.54981e-16, cumulative = 1.4716e-09
smoothSolver:  Solving for epsilon, Initial residual = 2.98955e-06, Final residual = 2.98955e-06, No Iterations 0
smoothSolver:  Solving for k, Initial residual = 1.60195e-05, Final residual = 4.50052e-06, No Iterations 1
ExecutionTime = 0.59 s  ClockTime = 1 s

Time = 4.4e-06

Courant Number mean: 1.03732e-05 max: 0.0108746
smoothSolver:  Solving for Ux, Initial residual = 0.00192827, Final residual = 5.17372e-07, No Iterations 1
smoothSolver:  Solving for Uy, Initial residual = 0.00144464, Final residual = 2.52261e-06, No Iterations 1
GAMG:  Solving for p, Initial residual = 0.0155549, Final residual = 0.00152707, No Iterations 1
time step continuity errors : sum local = 1.72343e-11, global = -7.76997e-15, cumulative = 1.47159e-09
GAMG:  Solving for p, Initial residual = 0.0023924, Final residual = 9.9978e-07, No Iterations 27
time step continuity errors : sum local = 1.11809e-14, global = -2.57126e-16, cumulative = 1.47159e-09
smoothSolver:  Solving for epsilon, Initial residual = 3.04192e-06, Final residual = 3.04192e-06, No Iterations 0
smoothSolver:  Solving for k, Initial residual = 1.58142e-05, Final residual = 4.22046e-06, No Iterations 1
ExecutionTime = 0.61 s  ClockTime = 1 s

Time = 4.5e-06

Courant Number mean: 1.03732e-05 max: 0.0110081
smoothSolver:  Solving for Ux, Initial residual = 0.00188724, Final residual = 5.01104e-07, No Iterations 1
smoothSolver:  Solving for Uy, Initial residual = 0.00140369, Final residual = 2.29935e-06, No Iterations 1
GAMG:  Solving for p, Initial residual = 0.0151735, Final residual = 0.00124542, No Iterations 1
time step continuity errors : sum local = 1.38157e-11, global = -7.26423e-15, cumulative = 1.47158e-09
GAMG:  Solving for p, Initial residual = 0.00192407, Final residual = 8.7505e-07, No Iterations 27
time step continuity errors : sum local = 9.63846e-15, global = -2.14027e-16, cumulative = 1.47158e-09
smoothSolver:  Solving for epsilon, Initial residual = 3.09735e-06, Final residual = 3.09735e-06, No Iterations 0
smoothSolver:  Solving for k, Initial residual = 1.56754e-05, Final residual = 4.14458e-06, No Iterations 1
ExecutionTime = 0.62 s  ClockTime = 1 s

Time = 4.6e-06

Courant Number mean: 1.03733e-05 max: 0.0111365
smoothSolver:  Solving for Ux, Initial residual = 0.00185032, Final residual = 4.96447e-07, No Iterations 1
smoothSolver:  Solving for Uy, Initial residual = 0.00136559, Final residual = 2.26462e-06, No Iterations 1
GAMG:  Solving for p, Initial residual = 0.0137852, Final residual = 0.0012135, No Iterations 1
time step continuity errors : sum local = 1.32357e-11, global = -7.33462e-15, cumulative = 1.47157e-09
GAMG:  Solving for p, Initial residual = 0.00185709, Final residual = 8.63893e-07, No Iterations 29
time step continuity errors : sum local = 9.34195e-15, global = -2.15583e-16, cumulative = 1.47157e-09
smoothSolver:  Solving for epsilon, Initial residual = 3.12348e-06, Final residual = 3.12348e-06, No Iterations 0
smoothSolver:  Solving for k, Initial residual = 1.58929e-05, Final residual = 4.39514e-06, No Iterations 1
ExecutionTime = 0.63 s  ClockTime = 1 s

Time = 4.7e-06

Courant Number mean: 1.03733e-05 max: 0.0112759
smoothSolver:  Solving for Ux, Initial residual = 0.0018195, Final residual = 5.71262e-07, No Iterations 1
smoothSolver:  Solving for Uy, Initial residual = 0.00132937, Final residual = 2.25626e-06, No Iterations 1
GAMG:  Solving for p, Initial residual = 0.0135263, Final residual = 0.00119373, No Iterations 1
time step continuity errors : sum local = 1.27947e-11, global = -6.36048e-15, cumulative = 1.47157e-09
GAMG:  Solving for p, Initial residual = 0.00181281, Final residual = 9.74612e-07, No Iterations 27
time step continuity errors : sum local = 1.03664e-14, global = -2.20896e-16, cumulative = 1.47157e-09
smoothSolver:  Solving for epsilon, Initial residual = 3.12785e-06, Final residual = 3.12785e-06, No Iterations 0
smoothSolver:  Solving for k, Initial residual = 1.64865e-05, Final residual = 4.86019e-06, No Iterations 1
ExecutionTime = 0.64 s  ClockTime = 1 s

Time = 4.8e-06

Courant Number mean: 1.03734e-05 max: 0.0114158
smoothSolver:  Solving for Ux, Initial residual = 0.0017905, Final residual = 6.00523e-07, No Iterations 1
smoothSolver:  Solving for Uy, Initial residual = 0.00129506, Final residual = 2.24811e-06, No Iterations 1
GAMG:  Solving for p, Initial residual = 0.0133578, Final residual = 0.00116541, No Iterations 1
time step continuity errors : sum local = 1.22932e-11, global = -5.99147e-15, cumulative = 1.47156e-09
GAMG:  Solving for p, Initial residual = 0.00177207, Final residual = 8.8432e-07, No Iterations 27
time step continuity errors : sum local = 9.26382e-15, global = -1.9053e-16, cumulative = 1.47156e-09
smoothSolver:  Solving for epsilon, Initial residual = 3.11806e-06, Final residual = 3.11806e-06, No Iterations 0
smoothSolver:  Solving for k, Initial residual = 1.72079e-05, Final residual = 5.3037e-06, No Iterations 1
ExecutionTime = 0.65 s  ClockTime = 1 s

Time = 4.9e-06

Courant Number mean: 1.03734e-05 max: 0.0115419
smoothSolver:  Solving for Ux, Initial residual = 0.00176259, Final residual = 6.60722e-07, No Iterations 1
smoothSolver:  Solving for Uy, Initial residual = 0.0012633, Final residual = 2.21294e-06, No Iterations 1
GAMG:  Solving for p, Initial residual = 0.0133761, Final residual = 0.00116466, No Iterations 1
time step continuity errors : sum local = 1.20985e-11, global = -6.12903e-15, cumulative = 1.47156e-09
GAMG:  Solving for p, Initial residual = 0.00187713, Final residual = 9.9501e-07, No Iterations 26
time step continuity errors : sum local = 1.02658e-14, global = -2.05194e-16, cumulative = 1.47156e-09
smoothSolver:  Solving for epsilon, Initial residual = 3.09855e-06, Final residual = 3.09855e-06, No Iterations 0
smoothSolver:  Solving for k, Initial residual = 1.7772e-05, Final residual = 5.66486e-06, No Iterations 1
ExecutionTime = 0.66 s  ClockTime = 1 s

Time = 5e-06

Courant Number mean: 1.03735e-05 max: 0.0116373
smoothSolver:  Solving for Ux, Initial residual = 0.00173604, Final residual = 7.12208e-07, No Iterations 1
smoothSolver:  Solving for Uy, Initial residual = 0.00123376, Final residual = 2.1767e-06, No Iterations 1
GAMG:  Solving for p, Initial residual = 0.0128843, Final residual = 0.00105676, No Iterations 1
time step continuity errors : sum local = 1.08118e-11, global = -5.32738e-15, cumulative = 1.47155e-09
GAMG:  Solving for p, Initial residual = 0.00169885, Final residual = 8.91642e-07, No Iterations 25
time step continuity errors : sum local = 9.06208e-15, global = -1.8482e-16, cumulative = 1.47155e-09
smoothSolver:  Solving for epsilon, Initial residual = 3.08841e-06, Final residual = 3.08841e-06, No Iterations 0
smoothSolver:  Solving for k, Initial residual = 1.79486e-05, Final residual = 5.81944e-06, No Iterations 1
ExecutionTime = 0.68 s  ClockTime = 1 s

Time = 5.1e-06

Courant Number mean: 1.03735e-05 max: 0.0116622
smoothSolver:  Solving for Ux, Initial residual = 0.00171067, Final residual = 6.85514e-07, No Iterations 1
smoothSolver:  Solving for Uy, Initial residual = 0.00120621, Final residual = 2.1412e-06, No Iterations 1
GAMG:  Solving for p, Initial residual = 0.0126245, Final residual = 0.00101693, No Iterations 1
time step continuity errors : sum local = 1.02428e-11, global = -5.43156e-15, cumulative = 1.47154e-09
GAMG:  Solving for p, Initial residual = 0.00169447, Final residual = 8.77667e-07, No Iterations 25
time step continuity errors : sum local = 8.77638e-15, global = -1.73991e-16, cumulative = 1.47154e-09
smoothSolver:  Solving for epsilon, Initial residual = 3.22315e-06, Final residual = 3.22315e-06, No Iterations 0
smoothSolver:  Solving for k, Initial residual = 1.83561e-05, Final residual = 5.63148e-06, No Iterations 1
ExecutionTime = 0.69 s  ClockTime = 1 s

Time = 5.2e-06

Courant Number mean: 1.03735e-05 max: 0.0115719
smoothSolver:  Solving for Ux, Initial residual = 0.00168746, Final residual = 7.14301e-07, No Iterations 1
smoothSolver:  Solving for Uy, Initial residual = 0.00118049, Final residual = 2.20552e-06, No Iterations 1
GAMG:  Solving for p, Initial residual = 0.0137404, Final residual = 0.00116036, No Iterations 1
time step continuity errors : sum local = 1.15112e-11, global = -5.07956e-15, cumulative = 1.47154e-09
GAMG:  Solving for p, Initial residual = 0.00208506, Final residual = 9.48696e-07, No Iterations 28
time step continuity errors : sum local = 9.35373e-15, global = -1.79885e-16, cumulative = 1.47154e-09
smoothSolver:  Solving for epsilon, Initial residual = 4.65026e-06, Final residual = 4.65026e-06, No Iterations 0
smoothSolver:  Solving for k, Initial residual = 1.88575e-05, Final residual = 5.6249e-06, No Iterations 1
ExecutionTime = 0.7 s  ClockTime = 1 s

Time = 5.3e-06

Courant Number mean: 1.03736e-05 max: 0.0112745
smoothSolver:  Solving for Ux, Initial residual = 0.00166632, Final residual = 7.96563e-07, No Iterations 1
smoothSolver:  Solving for Uy, Initial residual = 0.00115692, Final residual = 2.42326e-06, No Iterations 1
GAMG:  Solving for p, Initial residual = 0.0143355, Final residual = 0.00138619, No Iterations 1
time step continuity errors : sum local = 1.35688e-11, global = -5.16825e-15, cumulative = 1.47153e-09
GAMG:  Solving for p, Initial residual = 0.00256392, Final residual = 9.53187e-07, No Iterations 30
time step continuity errors : sum local = 9.28152e-15, global = -1.91542e-16, cumulative = 1.47153e-09
smoothSolver:  Solving for epsilon, Initial residual = 8.28239e-06, Final residual = 8.28239e-06, No Iterations 0
smoothSolver:  Solving for k, Initial residual = 1.90015e-05, Final residual = 5.75464e-06, No Iterations 1
ExecutionTime = 0.71 s  ClockTime = 1 s

Time = 5.4e-06

Courant Number mean: 1.03736e-05 max: 0.0108282
smoothSolver:  Solving for Ux, Initial residual = 0.00164755, Final residual = 9.3219e-07, No Iterations 1
smoothSolver:  Solving for Uy, Initial residual = 0.0011348, Final residual = 2.6139e-06, No Iterations 1
GAMG:  Solving for p, Initial residual = 0.0139401, Final residual = 0.00135859, No Iterations 1
time step continuity errors : sum local = 1.31348e-11, global = -4.70985e-15, cumulative = 1.47153e-09
GAMG:  Solving for p, Initial residual = 0.00246802, Final residual = 8.70635e-07, No Iterations 32
time step continuity errors : sum local = 8.37245e-15, global = -1.89104e-16, cumulative = 1.47153e-09
smoothSolver:  Solving for epsilon, Initial residual = 1.26331e-05, Final residual = 7.5779e-06, No Iterations 1
bounding epsilon, min: -3.44158 max: 40866.8 average: 35.0755
smoothSolver:  Solving for k, Initial residual = 1.92471e-05, Final residual = 5.94587e-06, No Iterations 1
ExecutionTime = 0.72 s  ClockTime = 1 s

Time = 5.5e-06

Courant Number mean: 1.03737e-05 max: 0.0108774
smoothSolver:  Solving for Ux, Initial residual = 0.00163163, Final residual = 1.01714e-06, No Iterations 1
smoothSolver:  Solving for Uy, Initial residual = 0.00111457, Final residual = 3.21629e-06, No Iterations 1
GAMG:  Solving for p, Initial residual = 0.0263178, Final residual = 0.000910043, No Iterations 2
time step continuity errors : sum local = 8.74285e-12, global = -1.31357e-14, cumulative = 1.47152e-09
GAMG:  Solving for p, Initial residual = 0.00591228, Final residual = 9.04136e-07, No Iterations 32
time step continuity errors : sum local = 8.52569e-15, global = -1.18923e-16, cumulative = 1.47152e-09
smoothSolver:  Solving for epsilon, Initial residual = 3.00796e-06, Final residual = 3.00796e-06, No Iterations 0
smoothSolver:  Solving for k, Initial residual = 1.57721e-05, Final residual = 4.12252e-06, No Iterations 1
ExecutionTime = 0.74 s  ClockTime = 1 s

Time = 5.6e-06

Courant Number mean: 1.03737e-05 max: 0.0109125
smoothSolver:  Solving for Ux, Initial residual = 0.00160969, Final residual = 6.88841e-07, No Iterations 1
smoothSolver:  Solving for Uy, Initial residual = 0.00108808, Final residual = 2.61434e-06, No Iterations 1
GAMG:  Solving for p, Initial residual = 0.0152311, Final residual = 0.00134978, No Iterations 1
time step continuity errors : sum local = 1.26107e-11, global = -4.47928e-15, cumulative = 1.47151e-09
GAMG:  Solving for p, Initial residual = 0.0020977, Final residual = 9.54649e-07, No Iterations 24
time step continuity errors : sum local = 8.86088e-15, global = -2.05785e-16, cumulative = 1.47151e-09
smoothSolver:  Solving for epsilon, Initial residual = 3.24402e-06, Final residual = 3.24402e-06, No Iterations 0
smoothSolver:  Solving for k, Initial residual = 1.58132e-05, Final residual = 4.24053e-06, No Iterations 1
ExecutionTime = 0.75 s  ClockTime = 1 s

Time = 5.7e-06

Courant Number mean: 1.03738e-05 max: 0.010946
smoothSolver:  Solving for Ux, Initial residual = 0.00159152, Final residual = 7.13194e-07, No Iterations 1
smoothSolver:  Solving for Uy, Initial residual = 0.00106798, Final residual = 2.65172e-06, No Iterations 1
GAMG:  Solving for p, Initial residual = 0.0137703, Final residual = 0.00122279, No Iterations 1
time step continuity errors : sum local = 1.1283e-11, global = -3.69709e-15, cumulative = 1.47151e-09
GAMG:  Solving for p, Initial residual = 0.00200937, Final residual = 8.62597e-07, No Iterations 27
time step continuity errors : sum local = 7.92475e-15, global = -1.71648e-16, cumulative = 1.47151e-09
smoothSolver:  Solving for epsilon, Initial residual = 3.43391e-06, Final residual = 3.43391e-06, No Iterations 0
smoothSolver:  Solving for k, Initial residual = 1.59563e-05, Final residual = 4.47565e-06, No Iterations 1
ExecutionTime = 0.76 s  ClockTime = 1 s

Time = 5.8e-06

Courant Number mean: 1.03738e-05 max: 0.010979
smoothSolver:  Solving for Ux, Initial residual = 0.00157447, Final residual = 8.04739e-07, No Iterations 1
smoothSolver:  Solving for Uy, Initial residual = 0.00104935, Final residual = 2.77508e-06, No Iterations 1
GAMG:  Solving for p, Initial residual = 0.0123704, Final residual = 0.00113755, No Iterations 1
time step continuity errors : sum local = 1.03838e-11, global = -4.08415e-15, cumulative = 1.4715e-09
GAMG:  Solving for p, Initial residual = 0.00186265, Final residual = 9.24384e-07, No Iterations 26
time step continuity errors : sum local = 8.39592e-15, global = -1.92565e-16, cumulative = 1.4715e-09
smoothSolver:  Solving for epsilon, Initial residual = 3.60144e-06, Final residual = 3.60144e-06, No Iterations 0
smoothSolver:  Solving for k, Initial residual = 1.61681e-05, Final residual = 4.78381e-06, No Iterations 1
ExecutionTime = 0.77 s  ClockTime = 1 s

Time = 5.9e-06

Courant Number mean: 1.03739e-05 max: 0.0110128
smoothSolver:  Solving for Ux, Initial residual = 0.00155855, Final residual = 8.88342e-07, No Iterations 1
smoothSolver:  Solving for Uy, Initial residual = 0.00103215, Final residual = 2.92693e-06, No Iterations 1
GAMG:  Solving for p, Initial residual = 0.0121649, Final residual = 0.00116121, No Iterations 1
time step continuity errors : sum local = 1.04715e-11, global = -3.56559e-15, cumulative = 1.4715e-09
GAMG:  Solving for p, Initial residual = 0.00192078, Final residual = 9.83204e-07, No Iterations 26
time step continuity errors : sum local = 8.81699e-15, global = -2.30214e-16, cumulative = 1.4715e-09
smoothSolver:  Solving for epsilon, Initial residual = 3.75198e-06, Final residual = 3.75198e-06, No Iterations 0
smoothSolver:  Solving for k, Initial residual = 1.63027e-05, Final residual = 5.11994e-06, No Iterations 1
ExecutionTime = 0.78 s  ClockTime = 1 s

Time = 6e-06

Courant Number mean: 1.03739e-05 max: 0.0110497
smoothSolver:  Solving for Ux, Initial residual = 0.00154379, Final residual = 9.89579e-07, No Iterations 1
smoothSolver:  Solving for Uy, Initial residual = 0.0010159, Final residual = 2.91074e-06, No Iterations 1
GAMG:  Solving for p, Initial residual = 0.0123968, Final residual = 0.00111076, No Iterations 1
time step continuity errors : sum local = 9.89705e-12, global = -3.55053e-15, cumulative = 1.4715e-09
GAMG:  Solving for p, Initial residual = 0.00197242, Final residual = 9.84308e-07, No Iterations 27
time step continuity errors : sum local = 8.72964e-15, global = -2.18156e-16, cumulative = 1.47149e-09
smoothSolver:  Solving for epsilon, Initial residual = 3.89137e-06, Final residual = 3.89137e-06, No Iterations 0
smoothSolver:  Solving for k, Initial residual = 1.64451e-05, Final residual = 5.48973e-06, No Iterations 1
ExecutionTime = 0.79 s  ClockTime = 1 s

Time = 6.1e-06

Courant Number mean: 1.0374e-05 max: 0.0110926
smoothSolver:  Solving for Ux, Initial residual = 0.00152971, Final residual = 1.02449e-06, No Iterations 1
smoothSolver:  Solving for Uy, Initial residual = 0.00100098, Final residual = 2.96685e-06, No Iterations 1
GAMG:  Solving for p, Initial residual = 0.0116985, Final residual = 0.00116127, No Iterations 1
time step continuity errors : sum local = 1.02234e-11, global = -3.39935e-15, cumulative = 1.47149e-09
GAMG:  Solving for p, Initial residual = 0.00191929, Final residual = 8.91112e-07, No Iterations 30
time step continuity errors : sum local = 7.80552e-15, global = -1.67782e-16, cumulative = 1.47149e-09
smoothSolver:  Solving for epsilon, Initial residual = 4.03348e-06, Final residual = 4.03348e-06, No Iterations 0
smoothSolver:  Solving for k, Initial residual = 1.66309e-05, Final residual = 5.80979e-06, No Iterations 1
ExecutionTime = 0.81 s  ClockTime = 1 s

Time = 6.2e-06

Courant Number mean: 1.0374e-05 max: 0.0111427
smoothSolver:  Solving for Ux, Initial residual = 0.00151663, Final residual = 1.10368e-06, No Iterations 1
smoothSolver:  Solving for Uy, Initial residual = 0.000986598, Final residual = 3.0407e-06, No Iterations 1
GAMG:  Solving for p, Initial residual = 0.0112835, Final residual = 0.00104482, No Iterations 1
time step continuity errors : sum local = 9.09188e-12, global = -3.19041e-15, cumulative = 1.47149e-09
GAMG:  Solving for p, Initial residual = 0.0018599, Final residual = 8.96412e-07, No Iterations 29
time step continuity errors : sum local = 7.76745e-15, global = -1.69558e-16, cumulative = 1.47149e-09
smoothSolver:  Solving for epsilon, Initial residual = 4.26857e-06, Final residual = 4.26857e-06, No Iterations 0
smoothSolver:  Solving for k, Initial residual = 1.62332e-05, Final residual = 5.72402e-06, No Iterations 1
ExecutionTime = 0.82 s  ClockTime = 1 s

Time = 6.3e-06

Courant Number mean: 1.0374e-05 max: 0.0111905
smoothSolver:  Solving for Ux, Initial residual = 0.0015041, Final residual = 1.08907e-06, No Iterations 1
smoothSolver:  Solving for Uy, Initial residual = 0.000972593, Final residual = 3.02782e-06, No Iterations 1
GAMG:  Solving for p, Initial residual = 0.0112102, Final residual = 0.0010721, No Iterations 1
time step continuity errors : sum local = 9.22374e-12, global = -3.28602e-15, cumulative = 1.47148e-09
GAMG:  Solving for p, Initial residual = 0.001876, Final residual = 9.1587e-07, No Iterations 31
time step continuity errors : sum local = 7.84453e-15, global = -1.63822e-16, cumulative = 1.47148e-09
smoothSolver:  Solving for epsilon, Initial residual = 5.37572e-06, Final residual = 5.37572e-06, No Iterations 0
smoothSolver:  Solving for k, Initial residual = 1.59273e-05, Final residual = 5.62253e-06, No Iterations 1
ExecutionTime = 0.83 s  ClockTime = 1 s

Time = 6.4e-06

Courant Number mean: 1.03741e-05 max: 0.0112252
smoothSolver:  Solving for Ux, Initial residual = 0.0014924, Final residual = 1.13743e-06, No Iterations 1
smoothSolver:  Solving for Uy, Initial residual = 0.000959017, Final residual = 3.09427e-06, No Iterations 1
GAMG:  Solving for p, Initial residual = 0.0113288, Final residual = 0.00105145, No Iterations 1
time step continuity errors : sum local = 8.94773e-12, global = -3.121e-15, cumulative = 1.47148e-09
GAMG:  Solving for p, Initial residual = 0.00187551, Final residual = 9.22329e-07, No Iterations 31
time step continuity errors : sum local = 7.81687e-15, global = -1.73047e-16, cumulative = 1.47148e-09
smoothSolver:  Solving for epsilon, Initial residual = 8.71804e-06, Final residual = 8.71804e-06, No Iterations 0
smoothSolver:  Solving for k, Initial residual = 1.54676e-05, Final residual = 5.45357e-06, No Iterations 1
ExecutionTime = 0.85 s  ClockTime = 1 s

Time = 6.5e-06

Courant Number mean: 1.03741e-05 max: 0.0112329
smoothSolver:  Solving for Ux, Initial residual = 0.00148145, Final residual = 1.18333e-06, No Iterations 1
smoothSolver:  Solving for Uy, Initial residual = 0.000945736, Final residual = 3.14007e-06, No Iterations 1
GAMG:  Solving for p, Initial residual = 0.0106934, Final residual = 0.000350723, No Iterations 2
time step continuity errors : sum local = 2.95244e-12, global = -3.75409e-15, cumulative = 1.47148e-09
GAMG:  Solving for p, Initial residual = 0.00181917, Final residual = 8.76341e-07, No Iterations 32
time step continuity errors : sum local = 7.34546e-15, global = -1.85881e-16, cumulative = 1.47148e-09
smoothSolver:  Solving for epsilon, Initial residual = 1.29358e-05, Final residual = 7.65445e-06, No Iterations 1
bounding epsilon, min: -1.67778 max: 40470.1 average: 44.3306
smoothSolver:  Solving for k, Initial residual = 1.50269e-05, Final residual = 5.29711e-06, No Iterations 1
ExecutionTime = 0.86 s  ClockTime = 1 s

Time = 6.6e-06

Courant Number mean: 1.03742e-05 max: 0.0111638
smoothSolver:  Solving for Ux, Initial residual = 0.00147298, Final residual = 1.34264e-06, No Iterations 1
smoothSolver:  Solving for Uy, Initial residual = 0.00093569, Final residual = 3.98346e-06, No Iterations 1
GAMG:  Solving for p, Initial residual = 0.0279851, Final residual = 0.00123792, No Iterations 2
time step continuity errors : sum local = 1.04481e-11, global = -4.02125e-15, cumulative = 1.47147e-09
GAMG:  Solving for p, Initial residual = 0.00530173, Final residual = 8.75062e-07, No Iterations 35
time step continuity errors : sum local = 7.25457e-15, global = 1.63594e-16, cumulative = 1.47147e-09
smoothSolver:  Solving for epsilon, Initial residual = 3.23679e-06, Final residual = 3.23679e-06, No Iterations 0
smoothSolver:  Solving for k, Initial residual = 1.22816e-05, Final residual = 3.74067e-06, No Iterations 1
ExecutionTime = 0.88 s  ClockTime = 1 s

Time = 6.7e-06

Courant Number mean: 1.03742e-05 max: 0.0111807
smoothSolver:  Solving for Ux, Initial residual = 0.00145778, Final residual = 1.09042e-06, No Iterations 1
smoothSolver:  Solving for Uy, Initial residual = 0.000915947, Final residual = 3.16856e-06, No Iterations 1
GAMG:  Solving for p, Initial residual = 0.0158422, Final residual = 0.00141682, No Iterations 1
time step continuity errors : sum local = 1.16578e-11, global = -3.74805e-15, cumulative = 1.47147e-09
GAMG:  Solving for p, Initial residual = 0.00246224, Final residual = 9.55724e-07, No Iterations 31
time step continuity errors : sum local = 7.82886e-15, global = -1.85371e-16, cumulative = 1.47147e-09
smoothSolver:  Solving for epsilon, Initial residual = 3.46332e-06, Final residual = 3.46332e-06, No Iterations 0
smoothSolver:  Solving for k, Initial residual = 1.19807e-05, Final residual = 3.56303e-06, No Iterations 1
ExecutionTime = 0.89 s  ClockTime = 1 s

Time = 6.8e-06

Courant Number mean: 1.03742e-05 max: 0.011162
smoothSolver:  Solving for Ux, Initial residual = 0.00144505, Final residual = 1.0409e-06, No Iterations 1
smoothSolver:  Solving for Uy, Initial residual = 0.000901186, Final residual = 2.86954e-06, No Iterations 1
GAMG:  Solving for p, Initial residual = 0.0115904, Final residual = 0.000983808, No Iterations 1
time step continuity errors : sum local = 8.01513e-12, global = -3.91438e-15, cumulative = 1.47147e-09
GAMG:  Solving for p, Initial residual = 0.0015187, Final residual = 9.02286e-07, No Iterations 25
time step continuity errors : sum local = 7.32416e-15, global = -1.69605e-16, cumulative = 1.47147e-09
smoothSolver:  Solving for epsilon, Initial residual = 3.63439e-06, Final residual = 3.63439e-06, No Iterations 0
smoothSolver:  Solving for k, Initial residual = 1.18488e-05, Final residual = 3.48725e-06, No Iterations 1
ExecutionTime = 0.9 s  ClockTime = 1 s

Time = 6.9e-06

Courant Number mean: 1.03743e-05 max: 0.0110403
smoothSolver:  Solving for Ux, Initial residual = 0.00143305, Final residual = 1.04457e-06, No Iterations 1
smoothSolver:  Solving for Uy, Initial residual = 0.000887913, Final residual = 2.73696e-06, No Iterations 1
GAMG:  Solving for p, Initial residual = 0.0100259, Final residual = 0.000883102, No Iterations 1
time step continuity errors : sum local = 7.12174e-12, global = -3.5242e-15, cumulative = 1.47146e-09
GAMG:  Solving for p, Initial residual = 0.00143111, Final residual = 9.0151e-07, No Iterations 28
time step continuity errors : sum local = 7.23694e-15, global = -1.80299e-16, cumulative = 1.47146e-09
smoothSolver:  Solving for epsilon, Initial residual = 3.78467e-06, Final residual = 3.78467e-06, No Iterations 0
smoothSolver:  Solving for k, Initial residual = 1.17359e-05, Final residual = 3.44582e-06, No Iterations 1
ExecutionTime = 0.91 s  ClockTime = 1 s

Time = 7e-06

Courant Number mean: 1.03743e-05 max: 0.0107801
smoothSolver:  Solving for Ux, Initial residual = 0.00142123, Final residual = 1.13604e-06, No Iterations 1
smoothSolver:  Solving for Uy, Initial residual = 0.000875354, Final residual = 2.55475e-06, No Iterations 1
GAMG:  Solving for p, Initial residual = 0.00925312, Final residual = 0.000852941, No Iterations 1
time step continuity errors : sum local = 6.80082e-12, global = -3.35503e-15, cumulative = 1.47146e-09
GAMG:  Solving for p, Initial residual = 0.00133293, Final residual = 9.04367e-07, No Iterations 27
time step continuity errors : sum local = 7.17623e-15, global = -1.887e-16, cumulative = 1.47146e-09
smoothSolver:  Solving for epsilon, Initial residual = 3.93661e-06, Final residual = 3.93661e-06, No Iterations 0
smoothSolver:  Solving for k, Initial residual = 1.16769e-05, Final residual = 3.43462e-06, No Iterations 1
ExecutionTime = 0.93 s  ClockTime = 1 s

Time = 7.1e-06

Courant Number mean: 1.03743e-05 max: 0.0103737
smoothSolver:  Solving for Ux, Initial residual = 0.00140939, Final residual = 1.20178e-06, No Iterations 1
smoothSolver:  Solving for Uy, Initial residual = 0.000863051, Final residual = 2.43531e-06, No Iterations 1
GAMG:  Solving for p, Initial residual = 0.00896209, Final residual = 0.000802386, No Iterations 1
time step continuity errors : sum local = 6.32667e-12, global = -3.39934e-15, cumulative = 1.47145e-09
GAMG:  Solving for p, Initial residual = 0.00126896, Final residual = 9.00616e-07, No Iterations 27
time step continuity errors : sum local = 7.06897e-15, global = -1.81484e-16, cumulative = 1.47145e-09
smoothSolver:  Solving for epsilon, Initial residual = 4.14597e-06, Final residual = 4.14597e-06, No Iterations 0
smoothSolver:  Solving for k, Initial residual = 1.16604e-05, Final residual = 3.4389e-06, No Iterations 1
ExecutionTime = 0.94 s  ClockTime = 1 s

Time = 7.2e-06

Courant Number mean: 1.03743e-05 max: 0.00983805
smoothSolver:  Solving for Ux, Initial residual = 0.00139722, Final residual = 1.24244e-06, No Iterations 1
smoothSolver:  Solving for Uy, Initial residual = 0.000851563, Final residual = 2.31411e-06, No Iterations 1
GAMG:  Solving for p, Initial residual = 0.00892708, Final residual = 0.000829241, No Iterations 1
time step continuity errors : sum local = 6.46686e-12, global = -3.25226e-15, cumulative = 1.47145e-09
GAMG:  Solving for p, Initial residual = 0.00134829, Final residual = 9.4907e-07, No Iterations 27
time step continuity errors : sum local = 7.36741e-15, global = -2.01179e-16, cumulative = 1.47145e-09
smoothSolver:  Solving for epsilon, Initial residual = 4.47779e-06, Final residual = 4.47779e-06, No Iterations 0
smoothSolver:  Solving for k, Initial residual = 1.16866e-05, Final residual = 3.46211e-06, No Iterations 1
ExecutionTime = 0.95 s  ClockTime = 1 s

Time = 7.3e-06

Courant Number mean: 1.03743e-05 max: 0.00920999
smoothSolver:  Solving for Ux, Initial residual = 0.00138495, Final residual = 1.35211e-06, No Iterations 1
smoothSolver:  Solving for Uy, Initial residual = 0.000840136, Final residual = 2.23904e-06, No Iterations 1
GAMG:  Solving for p, Initial residual = 0.00880795, Final residual = 0.000795899, No Iterations 1
time step continuity errors : sum local = 6.14138e-12, global = -3.32731e-15, cumulative = 1.47145e-09
GAMG:  Solving for p, Initial residual = 0.00135136, Final residual = 9.59484e-07, No Iterations 26
time step continuity errors : sum local = 7.37211e-15, global = -1.90696e-16, cumulative = 1.47145e-09
smoothSolver:  Solving for epsilon, Initial residual = 4.96972e-06, Final residual = 4.96972e-06, No Iterations 0
smoothSolver:  Solving for k, Initial residual = 1.17385e-05, Final residual = 3.49786e-06, No Iterations 1
ExecutionTime = 0.96 s  ClockTime = 1 s

Time = 7.4e-06

Courant Number mean: 1.03744e-05 max: 0.00852959
smoothSolver:  Solving for Ux, Initial residual = 0.00137198, Final residual = 1.38223e-06, No Iterations 1
smoothSolver:  Solving for Uy, Initial residual = 0.000829421, Final residual = 2.15336e-06, No Iterations 1
GAMG:  Solving for p, Initial residual = 0.00866984, Final residual = 0.000830818, No Iterations 1
time step continuity errors : sum local = 6.34509e-12, global = -3.1924e-15, cumulative = 1.47144e-09
GAMG:  Solving for p, Initial residual = 0.00146271, Final residual = 9.90287e-07, No Iterations 28
time step continuity errors : sum local = 7.53108e-15, global = -1.82651e-16, cumulative = 1.47144e-09
smoothSolver:  Solving for epsilon, Initial residual = 5.62551e-06, Final residual = 5.62551e-06, No Iterations 0
smoothSolver:  Solving for k, Initial residual = 1.18214e-05, Final residual = 3.54884e-06, No Iterations 1
ExecutionTime = 0.97 s  ClockTime = 1 s

Time = 7.5e-06

Courant Number mean: 1.03744e-05 max: 0.00785336
smoothSolver:  Solving for Ux, Initial residual = 0.00135789, Final residual = 1.46069e-06, No Iterations 1
smoothSolver:  Solving for Uy, Initial residual = 0.000818781, Final residual = 2.11108e-06, No Iterations 1
GAMG:  Solving for p, Initial residual = 0.00870601, Final residual = 0.000802282, No Iterations 1
time step continuity errors : sum local = 6.06762e-12, global = -3.11458e-15, cumulative = 1.47144e-09
GAMG:  Solving for p, Initial residual = 0.0014766, Final residual = 9.31628e-07, No Iterations 28
time step continuity errors : sum local = 7.01884e-15, global = -1.66776e-16, cumulative = 1.47144e-09
smoothSolver:  Solving for epsilon, Initial residual = 6.42954e-06, Final residual = 6.42954e-06, No Iterations 0
smoothSolver:  Solving for k, Initial residual = 1.19487e-05, Final residual = 3.61193e-06, No Iterations 1
ExecutionTime = 0.98 s  ClockTime = 1 s

Time = 7.6e-06

Courant Number mean: 1.03744e-05 max: 0.00746352
smoothSolver:  Solving for Ux, Initial residual = 0.00134058, Final residual = 1.47374e-06, No Iterations 1
smoothSolver:  Solving for Uy, Initial residual = 0.000808599, Final residual = 2.0604e-06, No Iterations 1
GAMG:  Solving for p, Initial residual = 0.00865141, Final residual = 0.000847129, No Iterations 1
time step continuity errors : sum local = 6.34744e-12, global = -3.02682e-15, cumulative = 1.47144e-09
GAMG:  Solving for p, Initial residual = 0.00158354, Final residual = 9.37183e-07, No Iterations 30
time step continuity errors : sum local = 6.99625e-15, global = -1.59657e-16, cumulative = 1.47144e-09
smoothSolver:  Solving for epsilon, Initial residual = 7.35592e-06, Final residual = 7.35592e-06, No Iterations 0
smoothSolver:  Solving for k, Initial residual = 1.21192e-05, Final residual = 3.68903e-06, No Iterations 1
ExecutionTime = 1 s  ClockTime = 1 s

Time = 7.7e-06

Courant Number mean: 1.03744e-05 max: 0.00741683
smoothSolver:  Solving for Ux, Initial residual = 0.00132045, Final residual = 1.51048e-06, No Iterations 1
smoothSolver:  Solving for Uy, Initial residual = 0.000798479, Final residual = 2.05699e-06, No Iterations 1
GAMG:  Solving for p, Initial residual = 0.00870102, Final residual = 0.00082145, No Iterations 1
time step continuity errors : sum local = 6.10071e-12, global = -2.91437e-15, cumulative = 1.47143e-09
GAMG:  Solving for p, Initial residual = 0.00157997, Final residual = 9.88343e-07, No Iterations 29
time step continuity errors : sum local = 7.31494e-15, global = -1.71398e-16, cumulative = 1.47143e-09
smoothSolver:  Solving for epsilon, Initial residual = 8.37831e-06, Final residual = 8.37831e-06, No Iterations 0
smoothSolver:  Solving for k, Initial residual = 1.23249e-05, Final residual = 3.77969e-06, No Iterations 1
ExecutionTime = 1.01 s  ClockTime = 1 s

Time = 7.8e-06

Courant Number mean: 1.03744e-05 max: 0.0073716
smoothSolver:  Solving for Ux, Initial residual = 0.00129932, Final residual = 1.50515e-06, No Iterations 1
smoothSolver:  Solving for Uy, Initial residual = 0.000788802, Final residual = 2.03793e-06, No Iterations 1
GAMG:  Solving for p, Initial residual = 0.00859763, Final residual = 0.000848912, No Iterations 1
time step continuity errors : sum local = 6.25153e-12, global = -2.82794e-15, cumulative = 1.47143e-09
GAMG:  Solving for p, Initial residual = 0.00164483, Final residual = 8.70673e-07, No Iterations 31
time step continuity errors : sum local = 6.39095e-15, global = -1.43457e-16, cumulative = 1.47143e-09
smoothSolver:  Solving for epsilon, Initial residual = 9.46228e-06, Final residual = 9.46228e-06, No Iterations 0
smoothSolver:  Solving for k, Initial residual = 1.25716e-05, Final residual = 3.88824e-06, No Iterations 1
ExecutionTime = 1.02 s  ClockTime = 1 s

Time = 7.9e-06

Courant Number mean: 1.03744e-05 max: 0.00732775
smoothSolver:  Solving for Ux, Initial residual = 0.00127785, Final residual = 1.52612e-06, No Iterations 1
smoothSolver:  Solving for Uy, Initial residual = 0.000779167, Final residual = 2.0766e-06, No Iterations 1
GAMG:  Solving for p, Initial residual = 0.00869498, Final residual = 0.000836064, No Iterations 1
time step continuity errors : sum local = 6.10872e-12, global = -2.72311e-15, cumulative = 1.47143e-09
GAMG:  Solving for p, Initial residual = 0.00163777, Final residual = 9.88099e-07, No Iterations 28
time step continuity errors : sum local = 7.19873e-15, global = -1.72122e-16, cumulative = 1.47143e-09
smoothSolver:  Solving for epsilon, Initial residual = 1.0579e-05, Final residual = 6.04785e-06, No Iterations 1
bounding epsilon, min: -51.8927 max: 39974.1 average: 55.9465
smoothSolver:  Solving for k, Initial residual = 1.28539e-05, Final residual = 4.0151e-06, No Iterations 1
ExecutionTime = 1.03 s  ClockTime = 1 s

Time = 8e-06

Courant Number mean: 1.03744e-05 max: 0.00728516
smoothSolver:  Solving for Ux, Initial residual = 0.00125865, Final residual = 1.86588e-06, No Iterations 1
smoothSolver:  Solving for Uy, Initial residual = 0.00077824, Final residual = 4.75982e-06, No Iterations 1
GAMG:  Solving for p, Initial residual = 0.0347074, Final residual = 0.00110334, No Iterations 2
time step continuity errors : sum local = 8.11711e-12, global = -1.96128e-15, cumulative = 1.47143e-09
GAMG:  Solving for p, Initial residual = 0.00852584, Final residual = 8.71387e-07, No Iterations 33
time step continuity errors : sum local = 6.29807e-15, global = 1.09029e-16, cumulative = 1.47143e-09
smoothSolver:  Solving for epsilon, Initial residual = 1.51111e-05, Final residual = 6.55947e-06, No Iterations 1
bounding epsilon, min: -57.1096 max: 39939 average: 57.1026
smoothSolver:  Solving for k, Initial residual = 1.1941e-05, Final residual = 3.43256e-06, No Iterations 1
ExecutionTime = 1.05 s  ClockTime = 1 s

Time = 8.1e-06

Courant Number mean: 1.03744e-05 max: 0.00724694
smoothSolver:  Solving for Ux, Initial residual = 0.00123768, Final residual = 1.62463e-06, No Iterations 1
smoothSolver:  Solving for Uy, Initial residual = 0.000766814, Final residual = 4.00891e-06, No Iterations 1
GAMG:  Solving for p, Initial residual = 0.0404877, Final residual = 0.00326379, No Iterations 1
time step continuity errors : sum local = 2.37691e-11, global = -1.20138e-15, cumulative = 1.47143e-09
GAMG:  Solving for p, Initial residual = 0.00653219, Final residual = 9.86251e-07, No Iterations 35
time step continuity errors : sum local = 6.98491e-15, global = -3.0301e-17, cumulative = 1.47143e-09
smoothSolver:  Solving for epsilon, Initial residual = 1.09293e-06, Final residual = 1.09293e-06, No Iterations 0
smoothSolver:  Solving for k, Initial residual = 1.07926e-05, Final residual = 2.692e-06, No Iterations 1
ExecutionTime = 1.06 s  ClockTime = 1 s

Time = 8.2e-06

Courant Number mean: 1.03744e-05 max: 0.00721165
smoothSolver:  Solving for Ux, Initial residual = 0.00121736, Final residual = 1.49807e-06, No Iterations 1
smoothSolver:  Solving for Uy, Initial residual = 0.000748116, Final residual = 2.46096e-06, No Iterations 1
GAMG:  Solving for p, Initial residual = 0.0130131, Final residual = 0.00129453, No Iterations 1
time step continuity errors : sum local = 9.0977e-12, global = -3.28856e-15, cumulative = 1.47142e-09
GAMG:  Solving for p, Initial residual = 0.0023883, Final residual = 9.14516e-07, No Iterations 37
time step continuity errors : sum local = 6.39473e-15, global = -1.26027e-16, cumulative = 1.47142e-09
smoothSolver:  Solving for epsilon, Initial residual = 1.12362e-06, Final residual = 1.12362e-06, No Iterations 0
smoothSolver:  Solving for k, Initial residual = 1.07493e-05, Final residual = 2.72404e-06, No Iterations 1
ExecutionTime = 1.08 s  ClockTime = 1 s

Time = 8.3e-06

Courant Number mean: 1.03744e-05 max: 0.00717737
smoothSolver:  Solving for Ux, Initial residual = 0.00119818, Final residual = 1.23667e-06, No Iterations 1
smoothSolver:  Solving for Uy, Initial residual = 0.000737117, Final residual = 1.84472e-06, No Iterations 1
GAMG:  Solving for p, Initial residual = 0.00987552, Final residual = 0.000854006, No Iterations 1
time step continuity errors : sum local = 5.94588e-12, global = -2.08384e-15, cumulative = 1.47142e-09
GAMG:  Solving for p, Initial residual = 0.0014362, Final residual = 9.83869e-07, No Iterations 32
time step continuity errors : sum local = 6.82702e-15, global = -1.69998e-16, cumulative = 1.47142e-09
smoothSolver:  Solving for epsilon, Initial residual = 1.16273e-06, Final residual = 1.16273e-06, No Iterations 0
smoothSolver:  Solving for k, Initial residual = 1.08681e-05, Final residual = 2.77938e-06, No Iterations 1
ExecutionTime = 1.09 s  ClockTime = 1 s

[...]
smoothSolver:  Solving for Uy, Initial residual = 1.70186e-05, Final residual = 1.01694e-08, No Iterations 1
GAMG:  Solving for p, Initial residual = 0.000468072, Final residual = 3.5245e-05, No Iterations 4
time step continuity errors : sum local = 1.35777e-14, global = 4.23901e-17, cumulative = 1.47195e-09
GAMG:  Solving for p, Initial residual = 0.000400417, Final residual = 8.60823e-07, No Iterations 19
time step continuity errors : sum local = 3.31583e-16, global = -6.08532e-18, cumulative = 1.47195e-09
smoothSolver:  Solving for epsilon, Initial residual = 7.13438e-06, Final residual = 7.13438e-06, No Iterations 0
smoothSolver:  Solving for k, Initial residual = 9.57458e-06, Final residual = 9.57458e-06, No Iterations 0
ExecutionTime = 45.42 s  ClockTime = 48 s

Time = 0.0003819

Courant Number mean: 1.03296e-05 max: 0.00617929
smoothSolver:  Solving for Ux, Initial residual = 4.35942e-06, Final residual = 4.35942e-06, No Iterations 0
smoothSolver:  Solving for Uy, Initial residual = 1.70147e-05, Final residual = 1.01648e-08, No Iterations 1
GAMG:  Solving for p, Initial residual = 0.000467929, Final residual = 3.52333e-05, No Iterations 4
time step continuity errors : sum local = 1.35703e-14, global = 4.23597e-17, cumulative = 1.47195e-09
GAMG:  Solving for p, Initial residual = 0.000400295, Final residual = 8.60487e-07, No Iterations 19
time step continuity errors : sum local = 3.31384e-16, global = -6.08173e-18, cumulative = 1.47195e-09
smoothSolver:  Solving for epsilon, Initial residual = 7.13438e-06, Final residual = 7.13438e-06, No Iterations 0
smoothSolver:  Solving for k, Initial residual = 9.57457e-06, Final residual = 9.57457e-06, No Iterations 0
ExecutionTime = 45.43 s  ClockTime = 48 s

Time = 0.000382

Courant Number mean: 1.03296e-05 max: 0.00617828
smoothSolver:  Solving for Ux, Initial residual = 4.35802e-06, Final residual = 4.35802e-06, No Iterations 0
smoothSolver:  Solving for Uy, Initial residual = 1.70109e-05, Final residual = 1.01603e-08, No Iterations 1
GAMG:  Solving for p, Initial residual = 0.000467789, Final residual = 3.52217e-05, No Iterations 4
time step continuity errors : sum local = 1.35629e-14, global = 4.23288e-17, cumulative = 1.47195e-09
GAMG:  Solving for p, Initial residual = 0.000400174, Final residual = 8.60152e-07, No Iterations 19
time step continuity errors : sum local = 3.31184e-16, global = -6.07814e-18, cumulative = 1.47195e-09
smoothSolver:  Solving for epsilon, Initial residual = 7.13438e-06, Final residual = 7.13438e-06, No Iterations 0
smoothSolver:  Solving for k, Initial residual = 9.57455e-06, Final residual = 9.57455e-06, No Iterations 0
ExecutionTime = 45.45 s  ClockTime = 48 s

Time = 0.0003821

Courant Number mean: 1.03296e-05 max: 0.00617727
smoothSolver:  Solving for Ux, Initial residual = 4.35661e-06, Final residual = 4.35661e-06, No Iterations 0
smoothSolver:  Solving for Uy, Initial residual = 1.7007e-05, Final residual = 1.01557e-08, No Iterations 1
GAMG:  Solving for p, Initial residual = 0.000467647, Final residual = 3.521e-05, No Iterations 4
time step continuity errors : sum local = 1.35556e-14, global = 4.22984e-17, cumulative = 1.47195e-09
GAMG:  Solving for p, Initial residual = 0.000400053, Final residual = 8.59817e-07, No Iterations 19
time step continuity errors : sum local = 3.30985e-16, global = -6.07458e-18, cumulative = 1.47195e-09
smoothSolver:  Solving for epsilon, Initial residual = 7.13437e-06, Final residual = 7.13437e-06, No Iterations 0
smoothSolver:  Solving for k, Initial residual = 9.57454e-06, Final residual = 9.57454e-06, No Iterations 0
ExecutionTime = 45.46 s  ClockTime = 48 s

Time = 0.0003822

Courant Number mean: 1.03296e-05 max: 0.00617627
smoothSolver:  Solving for Ux, Initial residual = 4.3552e-06, Final residual = 4.3552e-06, No Iterations 0
smoothSolver:  Solving for Uy, Initial residual = 1.70031e-05, Final residual = 1.01512e-08, No Iterations 1
GAMG:  Solving for p, Initial residual = 0.000467505, Final residual = 3.51984e-05, No Iterations 4
time step continuity errors : sum local = 1.35482e-14, global = 4.22681e-17, cumulative = 1.47195e-09
GAMG:  Solving for p, Initial residual = 0.000399932, Final residual = 8.59482e-07, No Iterations 19
time step continuity errors : sum local = 3.30786e-16, global = -6.07102e-18, cumulative = 1.47195e-09
smoothSolver:  Solving for epsilon, Initial residual = 7.13437e-06, Final residual = 7.13437e-06, No Iterations 0
smoothSolver:  Solving for k, Initial residual = 9.57453e-06, Final residual = 9.57453e-06, No Iterations 0
ExecutionTime = 45.47 s  ClockTime = 48 s

Time = 0.0003823

Courant Number mean: 1.03296e-05 max: 0.00617526
smoothSolver:  Solving for Ux, Initial residual = 4.3538e-06, Final residual = 4.3538e-06, No Iterations 0
smoothSolver:  Solving for Uy, Initial residual = 1.69992e-05, Final residual = 1.01466e-08, No Iterations 1
GAMG:  Solving for p, Initial residual = 0.000467362, Final residual = 3.51866e-05, No Iterations 4
time step continuity errors : sum local = 1.35408e-14, global = 4.2238e-17, cumulative = 1.47195e-09
GAMG:  Solving for p, Initial residual = 0.000399812, Final residual = 8.5915e-07, No Iterations 19
time step continuity errors : sum local = 3.30589e-16, global = -6.06747e-18, cumulative = 1.47195e-09
smoothSolver:  Solving for epsilon, Initial residual = 7.13437e-06, Final residual = 7.13437e-06, No Iterations 0
smoothSolver:  Solving for k, Initial residual = 9.57452e-06, Final residual = 9.57452e-06, No Iterations 0
ExecutionTime = 45.48 s  ClockTime = 48 s

Time = 0.0003824

Courant Number mean: 1.03296e-05 max: 0.00617425
smoothSolver:  Solving for Ux, Initial residual = 4.35239e-06, Final residual = 4.35239e-06, No Iterations 0
smoothSolver:  Solving for Uy, Initial residual = 1.69953e-05, Final residual = 1.0142e-08, No Iterations 1
GAMG:  Solving for p, Initial residual = 0.00046722, Final residual = 3.5175e-05, No Iterations 4
time step continuity errors : sum local = 1.35335e-14, global = 4.22078e-17, cumulative = 1.47195e-09
GAMG:  Solving for p, Initial residual = 0.000399691, Final residual = 8.58816e-07, No Iterations 19
time step continuity errors : sum local = 3.3039e-16, global = -6.0639e-18, cumulative = 1.47195e-09
smoothSolver:  Solving for epsilon, Initial residual = 7.13437e-06, Final residual = 7.13437e-06, No Iterations 0
smoothSolver:  Solving for k, Initial residual = 9.5745e-06, Final residual = 9.5745e-06, No Iterations 0
ExecutionTime = 45.49 s  ClockTime = 48 s

Time = 0.0003825

Courant Number mean: 1.03296e-05 max: 0.00617324
smoothSolver:  Solving for Ux, Initial residual = 4.35099e-06, Final residual = 4.35099e-06, No Iterations 0
smoothSolver:  Solving for Uy, Initial residual = 1.69914e-05, Final residual = 1.01374e-08, No Iterations 1
GAMG:  Solving for p, Initial residual = 0.000467078, Final residual = 3.51634e-05, No Iterations 4
time step continuity errors : sum local = 1.35262e-14, global = 4.21777e-17, cumulative = 1.47195e-09
GAMG:  Solving for p, Initial residual = 0.00039957, Final residual = 8.58481e-07, No Iterations 19
time step continuity errors : sum local = 3.30191e-16, global = -6.06035e-18, cumulative = 1.47195e-09
smoothSolver:  Solving for epsilon, Initial residual = 7.13437e-06, Final residual = 7.13437e-06, No Iterations 0
smoothSolver:  Solving for k, Initial residual = 9.57449e-06, Final residual = 9.57449e-06, No Iterations 0
ExecutionTime = 45.5 s  ClockTime = 48 s

Time = 0.0003826

Courant Number mean: 1.03296e-05 max: 0.00617223
smoothSolver:  Solving for Ux, Initial residual = 4.34959e-06, Final residual = 4.34959e-06, No Iterations 0
smoothSolver:  Solving for Uy, Initial residual = 1.69875e-05, Final residual = 1.01329e-08, No Iterations 1
GAMG:  Solving for p, Initial residual = 0.000466936, Final residual = 3.51517e-05, No Iterations 4
time step continuity errors : sum local = 1.35188e-14, global = 4.21475e-17, cumulative = 1.47195e-09
GAMG:  Solving for p, Initial residual = 0.00039945, Final residual = 8.58146e-07, No Iterations 19
time step continuity errors : sum local = 3.29992e-16, global = -6.05678e-18, cumulative = 1.47195e-09
smoothSolver:  Solving for epsilon, Initial residual = 7.13436e-06, Final residual = 7.13436e-06, No Iterations 0
smoothSolver:  Solving for k, Initial residual = 9.57448e-06, Final residual = 9.57448e-06, No Iterations 0
ExecutionTime = 45.51 s  ClockTime = 48 s

Time = 0.0003827

Courant Number mean: 1.03296e-05 max: 0.00617122
smoothSolver:  Solving for Ux, Initial residual = 4.34818e-06, Final residual = 4.34818e-06, No Iterations 0
smoothSolver:  Solving for Uy, Initial residual = 1.69836e-05, Final residual = 1.01283e-08, No Iterations 1
GAMG:  Solving for p, Initial residual = 0.000466795, Final residual = 3.51401e-05, No Iterations 4
time step continuity errors : sum local = 1.35115e-14, global = 4.21172e-17, cumulative = 1.47195e-09
GAMG:  Solving for p, Initial residual = 0.000399329, Final residual = 8.57811e-07, No Iterations 19
time step continuity errors : sum local = 3.29794e-16, global = -6.05322e-18, cumulative = 1.47195e-09
smoothSolver:  Solving for epsilon, Initial residual = 7.13436e-06, Final residual = 7.13436e-06, No Iterations 0
smoothSolver:  Solving for k, Initial residual = 9.57447e-06, Final residual = 9.57447e-06, No Iterations 0
ExecutionTime = 45.52 s  ClockTime = 48 s

Time = 0.0003828

Courant Number mean: 1.03296e-05 max: 0.00617022
smoothSolver:  Solving for Ux, Initial residual = 4.34678e-06, Final residual = 4.34678e-06, No Iterations 0
smoothSolver:  Solving for Uy, Initial residual = 1.69798e-05, Final residual = 1.01237e-08, No Iterations 1
GAMG:  Solving for p, Initial residual = 0.000466653, Final residual = 3.51284e-05, No Iterations 4
time step continuity errors : sum local = 1.35041e-14, global = 4.20871e-17, cumulative = 1.47195e-09
GAMG:  Solving for p, Initial residual = 0.000399208, Final residual = 8.57476e-07, No Iterations 19
time step continuity errors : sum local = 3.29595e-16, global = -6.04966e-18, cumulative = 1.47195e-09
smoothSolver:  Solving for epsilon, Initial residual = 7.13436e-06, Final residual = 7.13436e-06, No Iterations 0
smoothSolver:  Solving for k, Initial residual = 9.57445e-06, Final residual = 9.57445e-06, No Iterations 0
ExecutionTime = 45.53 s  ClockTime = 48 s

Time = 0.0003829

Courant Number mean: 1.03296e-05 max: 0.00616921
smoothSolver:  Solving for Ux, Initial residual = 4.34538e-06, Final residual = 4.34538e-06, No Iterations 0
smoothSolver:  Solving for Uy, Initial residual = 1.69759e-05, Final residual = 1.01191e-08, No Iterations 1
GAMG:  Solving for p, Initial residual = 0.00046651, Final residual = 3.51168e-05, No Iterations 4
time step continuity errors : sum local = 1.34968e-14, global = 4.20571e-17, cumulative = 1.47195e-09
GAMG:  Solving for p, Initial residual = 0.000399087, Final residual = 8.5714e-07, No Iterations 19
time step continuity errors : sum local = 3.29396e-16, global = -6.0461e-18, cumulative = 1.47195e-09
smoothSolver:  Solving for epsilon, Initial residual = 7.13436e-06, Final residual = 7.13436e-06, No Iterations 0
smoothSolver:  Solving for k, Initial residual = 9.57444e-06, Final residual = 9.57444e-06, No Iterations 0
ExecutionTime = 45.54 s  ClockTime = 48 s

Time = 0.000383

Courant Number mean: 1.03296e-05 max: 0.0061682
smoothSolver:  Solving for Ux, Initial residual = 4.34398e-06, Final residual = 4.34398e-06, No Iterations 0
smoothSolver:  Solving for Uy, Initial residual = 1.6972e-05, Final residual = 1.01145e-08, No Iterations 1
GAMG:  Solving for p, Initial residual = 0.000466367, Final residual = 3.51052e-05, No Iterations 4
time step continuity errors : sum local = 1.34895e-14, global = 4.20271e-17, cumulative = 1.47195e-09
GAMG:  Solving for p, Initial residual = 0.000398966, Final residual = 8.56805e-07, No Iterations 19
time step continuity errors : sum local = 3.29198e-16, global = -6.04254e-18, cumulative = 1.47195e-09
smoothSolver:  Solving for epsilon, Initial residual = 7.13436e-06, Final residual = 7.13436e-06, No Iterations 0
smoothSolver:  Solving for k, Initial residual = 9.57443e-06, Final residual = 9.57443e-06, No Iterations 0
ExecutionTime = 45.55 s  ClockTime = 48 s

Time = 0.0003831

Courant Number mean: 1.03296e-05 max: 0.00616719
smoothSolver:  Solving for Ux, Initial residual = 4.34258e-06, Final residual = 4.34258e-06, No Iterations 0
smoothSolver:  Solving for Uy, Initial residual = 1.69681e-05, Final residual = 1.01099e-08, No Iterations 1
GAMG:  Solving for p, Initial residual = 0.000466225, Final residual = 3.50935e-05, No Iterations 4
time step continuity errors : sum local = 1.34822e-14, global = 4.19972e-17, cumulative = 1.47195e-09
GAMG:  Solving for p, Initial residual = 0.000398845, Final residual = 8.5647e-07, No Iterations 19
time step continuity errors : sum local = 3.29e-16, global = -6.039e-18, cumulative = 1.47195e-09
smoothSolver:  Solving for epsilon, Initial residual = 7.13435e-06, Final residual = 7.13435e-06, No Iterations 0
smoothSolver:  Solving for k, Initial residual = 9.57442e-06, Final residual = 9.57442e-06, No Iterations 0
ExecutionTime = 45.56 s  ClockTime = 48 s

Time = 0.0003832

Courant Number mean: 1.03296e-05 max: 0.00616618
smoothSolver:  Solving for Ux, Initial residual = 4.34118e-06, Final residual = 4.34118e-06, No Iterations 0
smoothSolver:  Solving for Uy, Initial residual = 1.69643e-05, Final residual = 1.01053e-08, No Iterations 1
GAMG:  Solving for p, Initial residual = 0.000466082, Final residual = 3.50819e-05, No Iterations 4
time step continuity errors : sum local = 1.34748e-14, global = 4.19673e-17, cumulative = 1.47195e-09
GAMG:  Solving for p, Initial residual = 0.000398725, Final residual = 8.56135e-07, No Iterations 19
time step continuity errors : sum local = 3.28801e-16, global = -6.03544e-18, cumulative = 1.47195e-09
smoothSolver:  Solving for epsilon, Initial residual = 7.13435e-06, Final residual = 7.13435e-06, No Iterations 0
smoothSolver:  Solving for k, Initial residual = 9.57441e-06, Final residual = 9.57441e-06, No Iterations 0
ExecutionTime = 45.57 s  ClockTime = 48 s

Time = 0.0003833

Courant Number mean: 1.03296e-05 max: 0.00616518
smoothSolver:  Solving for Ux, Initial residual = 4.33979e-06, Final residual = 4.33979e-06, No Iterations 0
smoothSolver:  Solving for Uy, Initial residual = 1.69604e-05, Final residual = 1.01007e-08, No Iterations 1
GAMG:  Solving for p, Initial residual = 0.00046594, Final residual = 3.50703e-05, No Iterations 4
time step continuity errors : sum local = 1.34675e-14, global = 4.19373e-17, cumulative = 1.47195e-09
GAMG:  Solving for p, Initial residual = 0.000398604, Final residual = 8.55799e-07, No Iterations 19
time step continuity errors : sum local = 3.28603e-16, global = -6.03187e-18, cumulative = 1.47195e-09
smoothSolver:  Solving for epsilon, Initial residual = 7.13435e-06, Final residual = 7.13435e-06, No Iterations 0
smoothSolver:  Solving for k, Initial residual = 9.57439e-06, Final residual = 9.57439e-06, No Iterations 0
ExecutionTime = 45.59 s  ClockTime = 48 s

Time = 0.0003834

Courant Number mean: 1.03296e-05 max: 0.00616417
smoothSolver:  Solving for Ux, Initial residual = 4.33839e-06, Final residual = 4.33839e-06, No Iterations 0
smoothSolver:  Solving for Uy, Initial residual = 1.69566e-05, Final residual = 1.00961e-08, No Iterations 1
GAMG:  Solving for p, Initial residual = 0.000465797, Final residual = 3.50587e-05, No Iterations 4
time step continuity errors : sum local = 1.34602e-14, global = 4.19072e-17, cumulative = 1.47195e-09
GAMG:  Solving for p, Initial residual = 0.000398483, Final residual = 9.99671e-07, No Iterations 18
time step continuity errors : sum local = 3.83764e-16, global = -6.96353e-18, cumulative = 1.47195e-09
smoothSolver:  Solving for epsilon, Initial residual = 7.13435e-06, Final residual = 7.13435e-06, No Iterations 0
smoothSolver:  Solving for k, Initial residual = 9.57438e-06, Final residual = 9.57438e-06, No Iterations 0
ExecutionTime = 45.6 s  ClockTime = 48 s

Time = 0.0003835

Courant Number mean: 1.03295e-05 max: 0.00616316
smoothSolver:  Solving for Ux, Initial residual = 4.33699e-06, Final residual = 4.33699e-06, No Iterations 0
smoothSolver:  Solving for Uy, Initial residual = 1.69527e-05, Final residual = 1.00937e-08, No Iterations 1
GAMG:  Solving for p, Initial residual = 0.000465588, Final residual = 3.49319e-05, No Iterations 4
time step continuity errors : sum local = 1.34087e-14, global = 3.99823e-17, cumulative = 1.47195e-09
GAMG:  Solving for p, Initial residual = 0.000398257, Final residual = 8.62591e-07, No Iterations 19
time step continuity errors : sum local = 3.31071e-16, global = -6.08325e-18, cumulative = 1.47195e-09
smoothSolver:  Solving for epsilon, Initial residual = 7.13434e-06, Final residual = 7.13434e-06, No Iterations 0
smoothSolver:  Solving for k, Initial residual = 9.57437e-06, Final residual = 9.57437e-06, No Iterations 0
ExecutionTime = 45.61 s  ClockTime = 48 s

Time = 0.0003836

Courant Number mean: 1.03295e-05 max: 0.00616215
smoothSolver:  Solving for Ux, Initial residual = 4.3356e-06, Final residual = 4.3356e-06, No Iterations 0
smoothSolver:  Solving for Uy, Initial residual = 1.69488e-05, Final residual = 1.00827e-08, No Iterations 1
GAMG:  Solving for p, Initial residual = 0.000465578, Final residual = 3.50899e-05, No Iterations 4
time step continuity errors : sum local = 1.34665e-14, global = 4.26933e-17, cumulative = 1.47195e-09
GAMG:  Solving for p, Initial residual = 0.000398281, Final residual = 9.94649e-07, No Iterations 18
time step continuity errors : sum local = 3.81675e-16, global = -6.92142e-18, cumulative = 1.47195e-09
smoothSolver:  Solving for epsilon, Initial residual = 7.13434e-06, Final residual = 7.13434e-06, No Iterations 0
smoothSolver:  Solving for k, Initial residual = 9.57436e-06, Final residual = 9.57436e-06, No Iterations 0
ExecutionTime = 45.62 s  ClockTime = 48 s

Time = 0.0003837

Courant Number mean: 1.03295e-05 max: 0.00616115
smoothSolver:  Solving for Ux, Initial residual = 4.3342e-06, Final residual = 4.3342e-06, No Iterations 0
smoothSolver:  Solving for Uy, Initial residual = 1.6945e-05, Final residual = 1.00843e-08, No Iterations 1
GAMG:  Solving for p, Initial residual = 0.000465273, Final residual = 3.4906e-05, No Iterations 4
time step continuity errors : sum local = 1.33931e-14, global = 4.00384e-17, cumulative = 1.47195e-09
GAMG:  Solving for p, Initial residual = 0.000397986, Final residual = 8.6202e-07, No Iterations 19
time step continuity errors : sum local = 3.30712e-16, global = -6.07609e-18, cumulative = 1.47195e-09
smoothSolver:  Solving for epsilon, Initial residual = 7.13434e-06, Final residual = 7.13434e-06, No Iterations 0
smoothSolver:  Solving for k, Initial residual = 9.57434e-06, Final residual = 9.57434e-06, No Iterations 0
ExecutionTime = 45.63 s  ClockTime = 48 s

Time = 0.0003838

Courant Number mean: 1.03295e-05 max: 0.00616014
smoothSolver:  Solving for Ux, Initial residual = 4.33281e-06, Final residual = 4.33281e-06, No Iterations 0
smoothSolver:  Solving for Uy, Initial residual = 1.69411e-05, Final residual = 1.00728e-08, No Iterations 1
GAMG:  Solving for p, Initial residual = 0.000465299, Final residual = 3.50607e-05, No Iterations 4
time step continuity errors : sum local = 1.34496e-14, global = 4.26069e-17, cumulative = 1.47195e-09
GAMG:  Solving for p, Initial residual = 0.000398004, Final residual = 9.93977e-07, No Iterations 18
time step continuity errors : sum local = 3.81256e-16, global = -6.91378e-18, cumulative = 1.47195e-09
smoothSolver:  Solving for epsilon, Initial residual = 7.13434e-06, Final residual = 7.13434e-06, No Iterations 0
smoothSolver:  Solving for k, Initial residual = 9.57433e-06, Final residual = 9.57433e-06, No Iterations 0
ExecutionTime = 45.64 s  ClockTime = 48 s

Time = 0.0003839

Courant Number mean: 1.03295e-05 max: 0.00615913
